&HEAD CHID='FSRI_Nylon_Carpet_High_Pile', /
&TIME DT=1., T_END=20000.0 /
&DUMP DT_CTRL=1.0, DT_DEVC=1.0, DT_HRR=1.0, SIG_FIGS=4, SIG_FIGS_EXP=2, /
&MISC SOLID_PHASE_ONLY=.TRUE., TMPA=27., /
&MESH ID='MESH', IJK=3,3,3, XB=0.,0.3,0.,0.3,0.,0.3, /
&REAC ID='PROPANE', FUEL='PROPANE', /
&MATL ID='BACKING', CONDUCTIVITY=0.10, DENSITY=65., EMISSIVITY=0.9, SPECIFIC_HEAT=1.14, /
&MATL ID='SAMPLE', CONDUCTIVITY=0.0590, DENSITY=188.3, EMISSIVITY=1.0000, SPECIFIC_HEAT=1528.0000, /
&RAMP ID='CONE-RAMP', T=0.0000, F=28.7, /
&RAMP ID='CONE-RAMP', T=0.9701, F=42.9, /
&RAMP ID='CONE-RAMP', T=1.9403, F=59.8, /
&RAMP ID='CONE-RAMP', T=2.9104, F=78.9, /
&RAMP ID='CONE-RAMP', T=3.8806, F=99.9, /
&RAMP ID='CONE-RAMP', T=4.8507, F=123.0, /
&RAMP ID='CONE-RAMP', T=5.8209, F=147.8, /
&RAMP ID='CONE-RAMP', T=6.7910, F=172.9, /
&RAMP ID='CONE-RAMP', T=7.7612, F=196.9, /
&RAMP ID='CONE-RAMP', T=8.7313, F=219.3, /
&RAMP ID='CONE-RAMP', T=9.7015, F=239.6, /
&RAMP ID='CONE-RAMP', T=10.6716, F=257.9, /
&RAMP ID='CONE-RAMP', T=11.6418, F=274.7, /
&RAMP ID='CONE-RAMP', T=12.6119, F=290.0, /
&RAMP ID='CONE-RAMP', T=13.5821, F=304.0, /
&RAMP ID='CONE-RAMP', T=14.5522, F=316.4, /
&RAMP ID='CONE-RAMP', T=15.5224, F=327.7, /
&RAMP ID='CONE-RAMP', T=16.4925, F=337.6, /
&RAMP ID='CONE-RAMP', T=17.4627, F=346.2, /
&RAMP ID='CONE-RAMP', T=18.4328, F=354.7, /
! ... 381 like lines cut
&SURF ID='SAMPLE-25-013', EXTERNAL_FLUX=1., HEAT_TRANSFER_COEFFICIENT=0.0000, HEAT_TRANSFER_COEFFICIENT_BACK=10., HRRPUA=1., IGNITION_TEMPERATURE=20.0, MATL_ID(1:2,1)='SAMPLE','BACKING', RAMP_EF='IGNITION_RAMP-25-013', RAMP_Q='CONE-RAMP', REFERENCE_HEAT_FLUX=75.0000, REFERENCE_HEAT_FLUX_TIME_INTERVAL=1., REFERENCE_CONE_THICKNESS=0.01372566, THICKNESS(1:2)=0.01372566,0.01270000, /
&RAMP ID='IGNITION_RAMP-25-013', T=0.0, F=50.0000, /
&RAMP ID='IGNITION_RAMP-25-013', T=1.0, F=50.0000, /
&OBST ID='SAMPLE-25-013', SURF_ID='SAMPLE-25-013', XB=0.0000,0.1000,0.0000,0.1000,0.0000,0.0000,DEVC_ID='TIGN-25-013', /
&DEVC ID='WALL TEMPERATURE-25-013', INITIAL_STATE=.FALSE., IOR=3, OUTPUT=.FALSE., QUANTITY='WALL TEMPERATURE', SETPOINT=20.0, XYZ=0.0500,0.0500,0.0000, /
&CTRL ID='IGNITION-CTRL-25-013', FUNCTION_TYPE='ANY', INPUT_ID='WALL TEMPERATURE-25-013', /
&DEVC ID='TIGN-25-013', XYZ=0,0,0, SETPOINT=622.4697, QUANTITY='TIME', INITIAL_STATE=.FALSE., /
&DEVC ID='IGNITION_DEVC-25-013', CTRL_ID='IGNITION-CTRL-25-013', IOR=3, OUTPUT=.FALSE., QUANTITY='CONTROL', XYZ=0.0500,0.0500,0.0000, /
&DEVC ID='HRRPUA-25-013', IOR=3, QUANTITY='HRRPUA', SPEC_ID='PROPANE', XYZ=0.0500,0.0500,0.0000, /
&DEVC ID='IGNITION-TIME-25-013', NO_UPDATE_DEVC_ID='IGNITION_DEVC-25-013', OUTPUT=.FALSE., QUANTITY='TIME', XYZ=0.0500,0.0500,0.0000, /
&SURF ID='SAMPLE-50-013', EXTERNAL_FLUX=1., HEAT_TRANSFER_COEFFICIENT=0.0000, HEAT_TRANSFER_COEFFICIENT_BACK=10., HRRPUA=1., IGNITION_TEMPERATURE=20.0, MATL_ID(1:2,1)='SAMPLE','BACKING', RAMP_EF='IGNITION_RAMP-50-013', RAMP_Q='CONE-RAMP', REFERENCE_HEAT_FLUX=75.0000, REFERENCE_HEAT_FLUX_TIME_INTERVAL=1., REFERENCE_CONE_THICKNESS=0.01372566, THICKNESS(1:2)=0.01372566,0.01270000, /
&RAMP ID='IGNITION_RAMP-50-013', T=0.0, F=75.0000, /
&RAMP ID='IGNITION_RAMP-50-013', T=1.0, F=75.0000, /
&OBST ID='SAMPLE-50-013', SURF_ID='SAMPLE-50-013', XB=0.1000,0.2000,0.0000,0.1000,0.0000,0.0000,DEVC_ID='TIGN-50-013', /
&DEVC ID='WALL TEMPERATURE-50-013', INITIAL_STATE=.FALSE., IOR=3, OUTPUT=.FALSE., QUANTITY='WALL TEMPERATURE', SETPOINT=20.0, XYZ=0.1500,0.0500,0.0000, /
&CTRL ID='IGNITION-CTRL-50-013', FUNCTION_TYPE='ANY', INPUT_ID='WALL TEMPERATURE-50-013', /
&DEVC ID='TIGN-50-013', XYZ=0,0,0, SETPOINT=52.4403, QUANTITY='TIME', INITIAL_STATE=.FALSE., /
&DEVC ID='IGNITION_DEVC-50-013', CTRL_ID='IGNITION-CTRL-50-013', IOR=3, OUTPUT=.FALSE., QUANTITY='CONTROL', XYZ=0.1500,0.0500,0.0000, /
&DEVC ID='HRRPUA-50-013', IOR=3, QUANTITY='HRRPUA', SPEC_ID='PROPANE', XYZ=0.1500,0.0500,0.0000, /
&DEVC ID='IGNITION-TIME-50-013', NO_UPDATE_DEVC_ID='IGNITION_DEVC-50-013', OUTPUT=.FALSE., QUANTITY='TIME', XYZ=0.1500,0.0500,0.0000, /
&SURF ID='SAMPLE-75-013', EXTERNAL_FLUX=1., HEAT_TRANSFER_COEFFICIENT=0.0000, HEAT_TRANSFER_COEFFICIENT_BACK=10., HRRPUA=1., IGNITION_TEMPERATURE=20.0, MATL_ID(1:2,1)='SAMPLE','BACKING', RAMP_EF='IGNITION_RAMP-75-013', RAMP_Q='CONE-RAMP', REFERENCE_HEAT_FLUX=75.0000, REFERENCE_HEAT_FLUX_TIME_INTERVAL=1., REFERENCE_CONE_THICKNESS=0.01372566, THICKNESS(1:2)=0.01372566,0.01270000, /
&RAMP ID='IGNITION_RAMP-75-013', T=0.0, F=100.0000, /
&RAMP ID='IGNITION_RAMP-75-013', T=1.0, F=100.0000, /
&OBST ID='SAMPLE-75-013', SURF_ID='SAMPLE-75-013', XB=0.2000,0.3000,0.0000,0.1000,0.0000,0.0000,DEVC_ID='TIGN-75-013', /
&DEVC ID='WALL TEMPERATURE-75-013', INITIAL_STATE=.FALSE., IOR=3, OUTPUT=.FALSE., QUANTITY='WALL TEMPERATURE', SETPOINT=20.0, XYZ=0.2500,0.0500,0.0000, /
&CTRL ID='IGNITION-CTRL-75-013', FUNCTION_TYPE='ANY', INPUT_ID='WALL TEMPERATURE-75-013', /
&DEVC ID='TIGN-75-013', XYZ=0,0,0, SETPOINT=14.5000, QUANTITY='TIME', INITIAL_STATE=.FALSE., /
&DEVC ID='IGNITION_DEVC-75-013', CTRL_ID='IGNITION-CTRL-75-013', IOR=3, OUTPUT=.FALSE., QUANTITY='CONTROL', XYZ=0.2500,0.0500,0.0000, /
&DEVC ID='HRRPUA-75-013', IOR=3, QUANTITY='HRRPUA', SPEC_ID='PROPANE', XYZ=0.2500,0.0500,0.0000, /
&DEVC ID='IGNITION-TIME-75-013', NO_UPDATE_DEVC_ID='IGNITION_DEVC-75-013', OUTPUT=.FALSE., QUANTITY='TIME', XYZ=0.2500,0.0500,0.0000, /
