&HEAD CHID='FSRI_Vinyl_Plank_Flooring', /
&TIME DT=1., T_END=20000.0 /
&DUMP DT_CTRL=1.0, DT_DEVC=1.0, DT_HRR=1.0, SIG_FIGS=4, SIG_FIGS_EXP=2, /
&MISC SOLID_PHASE_ONLY=.TRUE., TMPA=27., /
&MESH ID='MESH', IJK=3,3,3, XB=0.,0.3,0.,0.3,0.,0.3, /
&REAC ID='PROPANE', FUEL='PROPANE', /
&MATL ID='BACKING', CONDUCTIVITY=0.10, DENSITY=65., EMISSIVITY=0.9, SPECIFIC_HEAT=1.14, /
&MATL ID='SAMPLE', CONDUCTIVITY=0.0740, DENSITY=663.7, EMISSIVITY=1.0000, SPECIFIC_HEAT=1351.0000, /
&RAMP ID='CONE-RAMP', T=0.0000, F=12.7, /
&RAMP ID='CONE-RAMP', T=0.9701, F=29.2, /
&RAMP ID='CONE-RAMP', T=1.9403, F=52.8, /
&RAMP ID='CONE-RAMP', T=2.9104, F=82.3, /
&RAMP ID='CONE-RAMP', T=3.8806, F=115.5, /
&RAMP ID='CONE-RAMP', T=4.8507, F=150.9, /
&RAMP ID='CONE-RAMP', T=5.8209, F=187.2, /
&RAMP ID='CONE-RAMP', T=6.7910, F=223.5, /
&RAMP ID='CONE-RAMP', T=7.7612, F=260.1, /
&RAMP ID='CONE-RAMP', T=8.7313, F=294.7, /
&RAMP ID='CONE-RAMP', T=9.7015, F=325.4, /
&RAMP ID='CONE-RAMP', T=10.6716, F=349.7, /
&RAMP ID='CONE-RAMP', T=11.6418, F=366.4, /
&RAMP ID='CONE-RAMP', T=12.6119, F=376.8, /
&RAMP ID='CONE-RAMP', T=13.5821, F=383.2, /
&RAMP ID='CONE-RAMP', T=14.5522, F=387.4, /
&RAMP ID='CONE-RAMP', T=15.5224, F=391.1, /
&RAMP ID='CONE-RAMP', T=16.4925, F=394.8, /
&RAMP ID='CONE-RAMP', T=17.4627, F=399.3, /
&RAMP ID='CONE-RAMP', T=18.4328, F=404.0, /
! ... 181 like lines cut
&SURF ID='SAMPLE-25-002', EXTERNAL_FLUX=1., HEAT_TRANSFER_COEFFICIENT=0.0000, HEAT_TRANSFER_COEFFICIENT_BACK=10., HRRPUA=1., IGNITION_TEMPERATURE=20.0, MATL_ID(1:2,1)='SAMPLE','BACKING', RAMP_EF='IGNITION_RAMP-25-002', RAMP_Q='CONE-RAMP', REFERENCE_HEAT_FLUX=77.4591, REFERENCE_HEAT_FLUX_TIME_INTERVAL=1., REFERENCE_CONE_THICKNESS=0.00244098, THICKNESS(1:2)=0.00244098,0.01270000, /
&RAMP ID='IGNITION_RAMP-25-002', T=0.0, F=44.5730, /
&RAMP ID='IGNITION_RAMP-25-002', T=1.0, F=44.5730, /
&OBST ID='SAMPLE-25-002', SURF_ID='SAMPLE-25-002', XB=0.0000,0.1000,0.0000,0.1000,0.0000,0.0000,DEVC_ID='TIGN-25-002', /
&DEVC ID='WALL TEMPERATURE-25-002', INITIAL_STATE=.FALSE., IOR=3, OUTPUT=.FALSE., QUANTITY='WALL TEMPERATURE', SETPOINT=20.0, XYZ=0.0500,0.0500,0.0000, /
&CTRL ID='IGNITION-CTRL-25-002', FUNCTION_TYPE='ANY', INPUT_ID='WALL TEMPERATURE-25-002', /
&DEVC ID='TIGN-25-002', XYZ=0,0,0, SETPOINT=22.3311, QUANTITY='TIME', INITIAL_STATE=.FALSE., /
&DEVC ID='IGNITION_DEVC-25-002', CTRL_ID='IGNITION-CTRL-25-002', IOR=3, OUTPUT=.FALSE., QUANTITY='CONTROL', XYZ=0.0500,0.0500,0.0000, /
&DEVC ID='HRRPUA-25-002', IOR=3, QUANTITY='HRRPUA', SPEC_ID='PROPANE', XYZ=0.0500,0.0500,0.0000, /
&DEVC ID='IGNITION-TIME-25-002', NO_UPDATE_DEVC_ID='IGNITION_DEVC-25-002', OUTPUT=.FALSE., QUANTITY='TIME', XYZ=0.0500,0.0500,0.0000, /
&SURF ID='SAMPLE-50-002', EXTERNAL_FLUX=1., HEAT_TRANSFER_COEFFICIENT=0.0000, HEAT_TRANSFER_COEFFICIENT_BACK=10., HRRPUA=1., IGNITION_TEMPERATURE=20.0, MATL_ID(1:2,1)='SAMPLE','BACKING', RAMP_EF='IGNITION_RAMP-50-002', RAMP_Q='CONE-RAMP', REFERENCE_HEAT_FLUX=77.4591, REFERENCE_HEAT_FLUX_TIME_INTERVAL=1., REFERENCE_CONE_THICKNESS=0.00244098, THICKNESS(1:2)=0.00244098,0.01270000, /
&RAMP ID='IGNITION_RAMP-50-002', T=0.0, F=77.4591, /
&RAMP ID='IGNITION_RAMP-50-002', T=1.0, F=77.4591, /
&OBST ID='SAMPLE-50-002', SURF_ID='SAMPLE-50-002', XB=0.1000,0.2000,0.0000,0.1000,0.0000,0.0000,DEVC_ID='TIGN-50-002', /
&DEVC ID='WALL TEMPERATURE-50-002', INITIAL_STATE=.FALSE., IOR=3, OUTPUT=.FALSE., QUANTITY='WALL TEMPERATURE', SETPOINT=20.0, XYZ=0.1500,0.0500,0.0000, /
&CTRL ID='IGNITION-CTRL-50-002', FUNCTION_TYPE='ANY', INPUT_ID='WALL TEMPERATURE-50-002', /
&DEVC ID='TIGN-50-002', XYZ=0,0,0, SETPOINT=5.4701, QUANTITY='TIME', INITIAL_STATE=.FALSE., /
&DEVC ID='IGNITION_DEVC-50-002', CTRL_ID='IGNITION-CTRL-50-002', IOR=3, OUTPUT=.FALSE., QUANTITY='CONTROL', XYZ=0.1500,0.0500,0.0000, /
&DEVC ID='HRRPUA-50-002', IOR=3, QUANTITY='HRRPUA', SPEC_ID='PROPANE', XYZ=0.1500,0.0500,0.0000, /
&DEVC ID='IGNITION-TIME-50-002', NO_UPDATE_DEVC_ID='IGNITION_DEVC-50-002', OUTPUT=.FALSE., QUANTITY='TIME', XYZ=0.1500,0.0500,0.0000, /
&SURF ID='SAMPLE-75-002', EXTERNAL_FLUX=1., HEAT_TRANSFER_COEFFICIENT=0.0000, HEAT_TRANSFER_COEFFICIENT_BACK=10., HRRPUA=1., IGNITION_TEMPERATURE=20.0, MATL_ID(1:2,1)='SAMPLE','BACKING', RAMP_EF='IGNITION_RAMP-75-002', RAMP_Q='CONE-RAMP', REFERENCE_HEAT_FLUX=77.4591, REFERENCE_HEAT_FLUX_TIME_INTERVAL=1., REFERENCE_CONE_THICKNESS=0.00244098, THICKNESS(1:2)=0.00244098,0.01270000, /
&RAMP ID='IGNITION_RAMP-75-002', T=0.0, F=108.1362, /
&RAMP ID='IGNITION_RAMP-75-002', T=1.0, F=108.1362, /
&OBST ID='SAMPLE-75-002', SURF_ID='SAMPLE-75-002', XB=0.2000,0.3000,0.0000,0.1000,0.0000,0.0000,DEVC_ID='TIGN-75-002', /
&DEVC ID='WALL TEMPERATURE-75-002', INITIAL_STATE=.FALSE., IOR=3, OUTPUT=.FALSE., QUANTITY='WALL TEMPERATURE', SETPOINT=20.0, XYZ=0.2500,0.0500,0.0000, /
&CTRL ID='IGNITION-CTRL-75-002', FUNCTION_TYPE='ANY', INPUT_ID='WALL TEMPERATURE-75-002', /
&DEVC ID='TIGN-75-002', XYZ=0,0,0, SETPOINT=0.7500, QUANTITY='TIME', INITIAL_STATE=.FALSE., /
&DEVC ID='IGNITION_DEVC-75-002', CTRL_ID='IGNITION-CTRL-75-002', IOR=3, OUTPUT=.FALSE., QUANTITY='CONTROL', XYZ=0.2500,0.0500,0.0000, /
&DEVC ID='HRRPUA-75-002', IOR=3, QUANTITY='HRRPUA', SPEC_ID='PROPANE', XYZ=0.2500,0.0500,0.0000, /
&DEVC ID='IGNITION-TIME-75-002', NO_UPDATE_DEVC_ID='IGNITION_DEVC-75-002', OUTPUT=.FALSE., QUANTITY='TIME', XYZ=0.2500,0.0500,0.0000, /
