&HEAD CHID='FSRI_PET', /
&TIME DT=1., T_END=4670.6 /
&DUMP DT_CTRL=1.0, DT_DEVC=1.0, DT_HRR=1.0, SIG_FIGS=4, SIG_FIGS_EXP=2, /
&MISC SOLID_PHASE_ONLY=.TRUE., TMPA=27., /
&MESH ID='MESH', IJK=3,3,3, XB=0.,0.3,0.,0.3,0.,0.3, /
&REAC ID='PROPANE', FUEL='PROPANE', /
&MATL ID='BACKING', CONDUCTIVITY=0.10, DENSITY=65., EMISSIVITY=0.9, SPECIFIC_HEAT=1.14, /
&MATL ID='SAMPLE', CONDUCTIVITY=0.1940, DENSITY=1401.0, EMISSIVITY=1.0000, SPECIFIC_HEAT=1171.0000, /
&RAMP ID='CONE-RAMP', T=0.0000, F=33.3, /
&RAMP ID='CONE-RAMP', T=1.8293, F=61.2, /
&RAMP ID='CONE-RAMP', T=3.6585, F=97.8, /
&RAMP ID='CONE-RAMP', T=5.4878, F=142.4, /
&RAMP ID='CONE-RAMP', T=7.3171, F=188.6, /
&RAMP ID='CONE-RAMP', T=9.1463, F=234.4, /
&RAMP ID='CONE-RAMP', T=10.9756, F=278.2, /
&RAMP ID='CONE-RAMP', T=12.8049, F=319.5, /
&RAMP ID='CONE-RAMP', T=14.6341, F=358.0, /
&RAMP ID='CONE-RAMP', T=16.4634, F=394.7, /
&RAMP ID='CONE-RAMP', T=18.2927, F=430.7, /
&RAMP ID='CONE-RAMP', T=20.1220, F=464.6, /
&RAMP ID='CONE-RAMP', T=21.9512, F=496.3, /
&RAMP ID='CONE-RAMP', T=23.7805, F=524.9, /
&RAMP ID='CONE-RAMP', T=25.6098, F=549.0, /
&RAMP ID='CONE-RAMP', T=27.4390, F=567.7, /
&RAMP ID='CONE-RAMP', T=29.2683, F=579.8, /
&RAMP ID='CONE-RAMP', T=31.0976, F=587.5, /
&RAMP ID='CONE-RAMP', T=32.9268, F=591.1, /
&RAMP ID='CONE-RAMP', T=34.7561, F=591.6, /
! ... 226 like lines cut
&SURF ID='SAMPLE-25-006', EXTERNAL_FLUX=1., HEAT_TRANSFER_COEFFICIENT=15.0000, HEAT_TRANSFER_COEFFICIENT_BACK=10., HRRPUA=1., IGNITION_TEMPERATURE=20.0, MATL_ID(1:2,1)='SAMPLE','BACKING', RAMP_EF='IGNITION_RAMP-25-006', RAMP_Q='CONE-RAMP', REFERENCE_HEAT_FLUX=87.0878, REFERENCE_HEAT_FLUX_TIME_INTERVAL=1., REFERENCE_CONE_THICKNESS=0.00653105, THICKNESS(1:2)=0.00653105,0.01270000, /
&RAMP ID='IGNITION_RAMP-25-006', T=0.0, F=53.2730, /
&RAMP ID='IGNITION_RAMP-25-006', T=1.0, F=53.2730, /
&OBST ID='SAMPLE-25-006', SURF_ID='SAMPLE-25-006', XB=0.0000,0.1000,0.0000,0.1000,0.0000,0.0000,DEVC_ID='TIGN-25-006', /
&DEVC ID='WALL TEMPERATURE-25-006', INITIAL_STATE=.FALSE., IOR=3, OUTPUT=.FALSE., QUANTITY='WALL TEMPERATURE', SETPOINT=20.0, XYZ=0.0500,0.0500,0.0000, /
&CTRL ID='IGNITION-CTRL-25-006', FUNCTION_TYPE='ANY', INPUT_ID='WALL TEMPERATURE-25-006', /
&DEVC ID='TIGN-25-006', XYZ=0,0,0, SETPOINT=381.5327, QUANTITY='TIME', INITIAL_STATE=.FALSE., /
&DEVC ID='IGNITION_DEVC-25-006', CTRL_ID='IGNITION-CTRL-25-006', IOR=3, OUTPUT=.FALSE., QUANTITY='CONTROL', XYZ=0.0500,0.0500,0.0000, /
&DEVC ID='HRRPUA-25-006', IOR=3, QUANTITY='HRRPUA', SPEC_ID='PROPANE', XYZ=0.0500,0.0500,0.0000, /
&DEVC ID='IGNITION-TIME-25-006', NO_UPDATE_DEVC_ID='IGNITION_DEVC-25-006', OUTPUT=.FALSE., QUANTITY='TIME', XYZ=0.0500,0.0500,0.0000, /
&SURF ID='SAMPLE-50-006', EXTERNAL_FLUX=1., HEAT_TRANSFER_COEFFICIENT=15.0000, HEAT_TRANSFER_COEFFICIENT_BACK=10., HRRPUA=1., IGNITION_TEMPERATURE=20.0, MATL_ID(1:2,1)='SAMPLE','BACKING', RAMP_EF='IGNITION_RAMP-50-006', RAMP_Q='CONE-RAMP', REFERENCE_HEAT_FLUX=87.0878, REFERENCE_HEAT_FLUX_TIME_INTERVAL=1., REFERENCE_CONE_THICKNESS=0.00653105, THICKNESS(1:2)=0.00653105,0.01270000, /
&RAMP ID='IGNITION_RAMP-50-006', T=0.0, F=87.0878, /
&RAMP ID='IGNITION_RAMP-50-006', T=1.0, F=87.0878, /
&OBST ID='SAMPLE-50-006', SURF_ID='SAMPLE-50-006', XB=0.1000,0.2000,0.0000,0.1000,0.0000,0.0000,DEVC_ID='TIGN-50-006', /
&DEVC ID='WALL TEMPERATURE-50-006', INITIAL_STATE=.FALSE., IOR=3, OUTPUT=.FALSE., QUANTITY='WALL TEMPERATURE', SETPOINT=20.0, XYZ=0.1500,0.0500,0.0000, /
&CTRL ID='IGNITION-CTRL-50-006', FUNCTION_TYPE='ANY', INPUT_ID='WALL TEMPERATURE-50-006', /
&DEVC ID='TIGN-50-006', XYZ=0,0,0, SETPOINT=84.8293, QUANTITY='TIME', INITIAL_STATE=.FALSE., /
&DEVC ID='IGNITION_DEVC-50-006', CTRL_ID='IGNITION-CTRL-50-006', IOR=3, OUTPUT=.FALSE., QUANTITY='CONTROL', XYZ=0.1500,0.0500,0.0000, /
&DEVC ID='HRRPUA-50-006', IOR=3, QUANTITY='HRRPUA', SPEC_ID='PROPANE', XYZ=0.1500,0.0500,0.0000, /
&DEVC ID='IGNITION-TIME-50-006', NO_UPDATE_DEVC_ID='IGNITION_DEVC-50-006', OUTPUT=.FALSE., QUANTITY='TIME', XYZ=0.1500,0.0500,0.0000, /
&SURF ID='SAMPLE-75-006', EXTERNAL_FLUX=1., HEAT_TRANSFER_COEFFICIENT=15.0000, HEAT_TRANSFER_COEFFICIENT_BACK=10., HRRPUA=1., IGNITION_TEMPERATURE=20.0, MATL_ID(1:2,1)='SAMPLE','BACKING', RAMP_EF='IGNITION_RAMP-75-006', RAMP_Q='CONE-RAMP', REFERENCE_HEAT_FLUX=87.0878, REFERENCE_HEAT_FLUX_TIME_INTERVAL=1., REFERENCE_CONE_THICKNESS=0.00653105, THICKNESS(1:2)=0.00653105,0.01270000, /
&RAMP ID='IGNITION_RAMP-75-006', T=0.0, F=118.5775, /
&RAMP ID='IGNITION_RAMP-75-006', T=1.0, F=118.5775, /
&OBST ID='SAMPLE-75-006', SURF_ID='SAMPLE-75-006', XB=0.2000,0.3000,0.0000,0.1000,0.0000,0.0000,DEVC_ID='TIGN-75-006', /
&DEVC ID='WALL TEMPERATURE-75-006', INITIAL_STATE=.FALSE., IOR=3, OUTPUT=.FALSE., QUANTITY='WALL TEMPERATURE', SETPOINT=20.0, XYZ=0.2500,0.0500,0.0000, /
&CTRL ID='IGNITION-CTRL-75-006', FUNCTION_TYPE='ANY', INPUT_ID='WALL TEMPERATURE-75-006', /
&DEVC ID='TIGN-75-006', XYZ=0,0,0, SETPOINT=38.9073, QUANTITY='TIME', INITIAL_STATE=.FALSE., /
&DEVC ID='IGNITION_DEVC-75-006', CTRL_ID='IGNITION-CTRL-75-006', IOR=3, OUTPUT=.FALSE., QUANTITY='CONTROL', XYZ=0.2500,0.0500,0.0000, /
&DEVC ID='HRRPUA-75-006', IOR=3, QUANTITY='HRRPUA', SPEC_ID='PROPANE', XYZ=0.2500,0.0500,0.0000, /
&DEVC ID='IGNITION-TIME-75-006', NO_UPDATE_DEVC_ID='IGNITION_DEVC-75-006', OUTPUT=.FALSE., QUANTITY='TIME', XYZ=0.2500,0.0500,0.0000, /
