&HEAD CHID='FSRI_PE_Foam_Pipe_Insulation', /
&TIME DT=1., T_END=20000.0 /
&DUMP DT_CTRL=1.0, DT_DEVC=1.0, DT_HRR=1.0, SIG_FIGS=4, SIG_FIGS_EXP=2, /
&MISC SOLID_PHASE_ONLY=.TRUE., TMPA=27., /
&MESH ID='MESH', IJK=3,3,3, XB=0.,0.3,0.,0.3,0.,0.3, /
&REAC ID='PROPANE', FUEL='PROPANE', /
&MATL ID='BACKING', CONDUCTIVITY=0.10, DENSITY=65., EMISSIVITY=0.9, SPECIFIC_HEAT=1.14, /
&MATL ID='SAMPLE', CONDUCTIVITY=0.0580, DENSITY=35.3, EMISSIVITY=1.0000, SPECIFIC_HEAT=2581.0000, /
&RAMP ID='CONE-RAMP', T=0.0000, F=5.4, /
&RAMP ID='CONE-RAMP', T=1.6525, F=12.1, /
&RAMP ID='CONE-RAMP', T=3.3051, F=19.9, /
&RAMP ID='CONE-RAMP', T=4.9576, F=28.4, /
&RAMP ID='CONE-RAMP', T=6.6102, F=37.7, /
&RAMP ID='CONE-RAMP', T=8.2627, F=47.9, /
&RAMP ID='CONE-RAMP', T=9.9153, F=56.7, /
&RAMP ID='CONE-RAMP', T=11.5678, F=66.3, /
&RAMP ID='CONE-RAMP', T=13.2203, F=79.9, /
&RAMP ID='CONE-RAMP', T=14.8729, F=100.9, /
&RAMP ID='CONE-RAMP', T=16.5254, F=128.5, /
&RAMP ID='CONE-RAMP', T=18.1780, F=160.8, /
&RAMP ID='CONE-RAMP', T=19.8305, F=197.8, /
&RAMP ID='CONE-RAMP', T=21.4831, F=240.2, /
&RAMP ID='CONE-RAMP', T=23.1356, F=285.8, /
&RAMP ID='CONE-RAMP', T=24.7881, F=329.7, /
&RAMP ID='CONE-RAMP', T=26.4407, F=371.6, /
&RAMP ID='CONE-RAMP', T=28.0932, F=411.6, /
&RAMP ID='CONE-RAMP', T=29.7458, F=449.6, /
&RAMP ID='CONE-RAMP', T=31.3983, F=482.4, /
! ... 99 like lines cut
&SURF ID='SAMPLE-25-014', EXTERNAL_FLUX=1., HEAT_TRANSFER_COEFFICIENT=0.0000, HEAT_TRANSFER_COEFFICIENT_BACK=10., HRRPUA=1., IGNITION_TEMPERATURE=20.0, MATL_ID(1:2,1)='SAMPLE','BACKING', RAMP_EF='IGNITION_RAMP-25-014', RAMP_Q='CONE-RAMP', REFERENCE_HEAT_FLUX=82.7362, REFERENCE_HEAT_FLUX_TIME_INTERVAL=1., REFERENCE_CONE_THICKNESS=0.01429245, THICKNESS(1:2)=0.01429245,0.01270000, /
&RAMP ID='IGNITION_RAMP-25-014', T=0.0, F=49.3161, /
&RAMP ID='IGNITION_RAMP-25-014', T=1.0, F=49.3161, /
&OBST ID='SAMPLE-25-014', SURF_ID='SAMPLE-25-014', XB=0.0000,0.1000,0.0000,0.1000,0.0000,0.0000,DEVC_ID='TIGN-25-014', /
&DEVC ID='WALL TEMPERATURE-25-014', INITIAL_STATE=.FALSE., IOR=3, OUTPUT=.FALSE., QUANTITY='WALL TEMPERATURE', SETPOINT=20.0, XYZ=0.0500,0.0500,0.0000, /
&CTRL ID='IGNITION-CTRL-25-014', FUNCTION_TYPE='ANY', INPUT_ID='WALL TEMPERATURE-25-014', /
&DEVC ID='TIGN-25-014', XYZ=0,0,0, SETPOINT=34.9135, QUANTITY='TIME', INITIAL_STATE=.FALSE., /
&DEVC ID='IGNITION_DEVC-25-014', CTRL_ID='IGNITION-CTRL-25-014', IOR=3, OUTPUT=.FALSE., QUANTITY='CONTROL', XYZ=0.0500,0.0500,0.0000, /
&DEVC ID='HRRPUA-25-014', IOR=3, QUANTITY='HRRPUA', SPEC_ID='PROPANE', XYZ=0.0500,0.0500,0.0000, /
&DEVC ID='IGNITION-TIME-25-014', NO_UPDATE_DEVC_ID='IGNITION_DEVC-25-014', OUTPUT=.FALSE., QUANTITY='TIME', XYZ=0.0500,0.0500,0.0000, /
&SURF ID='SAMPLE-50-014', EXTERNAL_FLUX=1., HEAT_TRANSFER_COEFFICIENT=0.0000, HEAT_TRANSFER_COEFFICIENT_BACK=10., HRRPUA=1., IGNITION_TEMPERATURE=20.0, MATL_ID(1:2,1)='SAMPLE','BACKING', RAMP_EF='IGNITION_RAMP-50-014', RAMP_Q='CONE-RAMP', REFERENCE_HEAT_FLUX=82.7362, REFERENCE_HEAT_FLUX_TIME_INTERVAL=1., REFERENCE_CONE_THICKNESS=0.01429245, THICKNESS(1:2)=0.01429245,0.01270000, /
&RAMP ID='IGNITION_RAMP-50-014', T=0.0, F=82.7362, /
&RAMP ID='IGNITION_RAMP-50-014', T=1.0, F=82.7362, /
&OBST ID='SAMPLE-50-014', SURF_ID='SAMPLE-50-014', XB=0.1000,0.2000,0.0000,0.1000,0.0000,0.0000,DEVC_ID='TIGN-50-014', /
&DEVC ID='WALL TEMPERATURE-50-014', INITIAL_STATE=.FALSE., IOR=3, OUTPUT=.FALSE., QUANTITY='WALL TEMPERATURE', SETPOINT=20.0, XYZ=0.1500,0.0500,0.0000, /
&CTRL ID='IGNITION-CTRL-50-014', FUNCTION_TYPE='ANY', INPUT_ID='WALL TEMPERATURE-50-014', /
&DEVC ID='TIGN-50-014', XYZ=0,0,0, SETPOINT=0.5000, QUANTITY='TIME', INITIAL_STATE=.FALSE., /
&DEVC ID='IGNITION_DEVC-50-014', CTRL_ID='IGNITION-CTRL-50-014', IOR=3, OUTPUT=.FALSE., QUANTITY='CONTROL', XYZ=0.1500,0.0500,0.0000, /
&DEVC ID='HRRPUA-50-014', IOR=3, QUANTITY='HRRPUA', SPEC_ID='PROPANE', XYZ=0.1500,0.0500,0.0000, /
&DEVC ID='IGNITION-TIME-50-014', NO_UPDATE_DEVC_ID='IGNITION_DEVC-50-014', OUTPUT=.FALSE., QUANTITY='TIME', XYZ=0.1500,0.0500,0.0000, /
&SURF ID='SAMPLE-75-014', EXTERNAL_FLUX=1., HEAT_TRANSFER_COEFFICIENT=0.0000, HEAT_TRANSFER_COEFFICIENT_BACK=10., HRRPUA=1., IGNITION_TEMPERATURE=20.0, MATL_ID(1:2,1)='SAMPLE','BACKING', RAMP_EF='IGNITION_RAMP-75-014', RAMP_Q='CONE-RAMP', REFERENCE_HEAT_FLUX=82.7362, REFERENCE_HEAT_FLUX_TIME_INTERVAL=1., REFERENCE_CONE_THICKNESS=0.01429245, THICKNESS(1:2)=0.01429245,0.01270000, /
&RAMP ID='IGNITION_RAMP-75-014', T=0.0, F=113.8749, /
&RAMP ID='IGNITION_RAMP-75-014', T=1.0, F=113.8749, /
&OBST ID='SAMPLE-75-014', SURF_ID='SAMPLE-75-014', XB=0.2000,0.3000,0.0000,0.1000,0.0000,0.0000,DEVC_ID='TIGN-75-014', /
&DEVC ID='WALL TEMPERATURE-75-014', INITIAL_STATE=.FALSE., IOR=3, OUTPUT=.FALSE., QUANTITY='WALL TEMPERATURE', SETPOINT=20.0, XYZ=0.2500,0.0500,0.0000, /
&CTRL ID='IGNITION-CTRL-75-014', FUNCTION_TYPE='ANY', INPUT_ID='WALL TEMPERATURE-75-014', /
&DEVC ID='TIGN-75-014', XYZ=0,0,0, SETPOINT=0.2500, QUANTITY='TIME', INITIAL_STATE=.FALSE., /
&DEVC ID='IGNITION_DEVC-75-014', CTRL_ID='IGNITION-CTRL-75-014', IOR=3, OUTPUT=.FALSE., QUANTITY='CONTROL', XYZ=0.2500,0.0500,0.0000, /
&DEVC ID='HRRPUA-75-014', IOR=3, QUANTITY='HRRPUA', SPEC_ID='PROPANE', XYZ=0.2500,0.0500,0.0000, /
&DEVC ID='IGNITION-TIME-75-014', NO_UPDATE_DEVC_ID='IGNITION_DEVC-75-014', OUTPUT=.FALSE., QUANTITY='TIME', XYZ=0.2500,0.0500,0.0000, /
