&HEAD CHID='FAA_PVC', /
&TIME DT=1., T_END=907.0 /
&DUMP DT_CTRL=1.0, DT_DEVC=1.0, DT_HRR=1.0, SIG_FIGS=4, SIG_FIGS_EXP=2, /
&MISC SOLID_PHASE_ONLY=.TRUE., TMPA=27., /
&MESH ID='MESH', IJK=3,3,3, XB=0.,0.3,0.,0.3,0.,0.3, /
&REAC ID='PROPANE', FUEL='PROPANE', /
&MATL ID='BACKING', CONDUCTIVITY=0.10, DENSITY=65., EMISSIVITY=0.9, SPECIFIC_HEAT=1.14, /
&MATL ID='SAMPLE', CONDUCTIVITY=0.1700, DENSITY=1430.0, EMISSIVITY=0.9000, SPECIFIC_HEAT=1.5500, /
&RAMP ID='CONE-RAMP', T=0.0000, F=31.0, /
&RAMP ID='CONE-RAMP', T=1.0000, F=61.2, /
&RAMP ID='CONE-RAMP', T=2.0000, F=123.8, /
&RAMP ID='CONE-RAMP', T=3.0000, F=170.4, /
&RAMP ID='CONE-RAMP', T=4.0000, F=197.8, /
&RAMP ID='CONE-RAMP', T=5.0000, F=208.3, /
&RAMP ID='CONE-RAMP', T=6.0000, F=208.7, /
&RAMP ID='CONE-RAMP', T=7.0000, F=215.4, /
&RAMP ID='CONE-RAMP', T=8.0000, F=218.8, /
&RAMP ID='CONE-RAMP', T=9.0000, F=221.4, /
&RAMP ID='CONE-RAMP', T=10.0000, F=224.4, /
&RAMP ID='CONE-RAMP', T=11.0000, F=224.3, /
&RAMP ID='CONE-RAMP', T=12.0000, F=228.7, /
&RAMP ID='CONE-RAMP', T=13.0000, F=230.4, /
&RAMP ID='CONE-RAMP', T=14.0000, F=228.9, /
&RAMP ID='CONE-RAMP', T=15.0000, F=228.7, /
&RAMP ID='CONE-RAMP', T=16.0000, F=225.9, /
&RAMP ID='CONE-RAMP', T=17.0000, F=223.1, /
&RAMP ID='CONE-RAMP', T=18.0000, F=217.7, /
&RAMP ID='CONE-RAMP', T=19.0000, F=209.8, /
! ... 505 like lines cut
&SURF ID='SAMPLE-75-003', EXTERNAL_FLUX=1., HEAT_TRANSFER_COEFFICIENT=15.0000, HEAT_TRANSFER_COEFFICIENT_BACK=10., HRRPUA=1., IGNITION_TEMPERATURE=20.0, MATL_ID(1:2,1)='SAMPLE','BACKING', RAMP_EF='IGNITION_RAMP-75-003', RAMP_Q='CONE-RAMP', REFERENCE_HEAT_FLUX=92.4602, REFERENCE_HEAT_FLUX_TIME_INTERVAL=1., REFERENCE_CONE_THICKNESS=0.00600000, THICKNESS(1:2)=0.00300000,0.01270000, /
&RAMP ID='IGNITION_RAMP-75-003', T=0.0, F=92.4602, /
&RAMP ID='IGNITION_RAMP-75-003', T=1.0, F=92.4602, /
&OBST ID='SAMPLE-75-003', SURF_ID='SAMPLE-75-003', XB=0.0000,0.1000,0.0000,0.1000,0.0000,0.0000,DEVC_ID='TIGN-75-003', /
&DEVC ID='WALL TEMPERATURE-75-003', INITIAL_STATE=.FALSE., IOR=3, OUTPUT=.FALSE., QUANTITY='WALL TEMPERATURE', SETPOINT=20.0, XYZ=0.0500,0.0500,0.0000, /
&CTRL ID='IGNITION-CTRL-75-003', FUNCTION_TYPE='ANY', INPUT_ID='WALL TEMPERATURE-75-003', /
&DEVC ID='TIGN-75-003', XYZ=0,0,0, SETPOINT=16.0000, QUANTITY='TIME', INITIAL_STATE=.FALSE., /
&DEVC ID='IGNITION_DEVC-75-003', CTRL_ID='IGNITION-CTRL-75-003', IOR=3, OUTPUT=.FALSE., QUANTITY='CONTROL', XYZ=0.0500,0.0500,0.0000, /
&DEVC ID='HRRPUA-75-003', IOR=3, QUANTITY='HRRPUA', SPEC_ID='PROPANE', XYZ=0.0500,0.0500,0.0000, /
&DEVC ID='IGNITION-TIME-75-003', NO_UPDATE_DEVC_ID='IGNITION_DEVC-75-003', OUTPUT=.FALSE., QUANTITY='TIME', XYZ=0.0500,0.0500,0.0000, /
&SURF ID='SAMPLE-50-006', EXTERNAL_FLUX=1., HEAT_TRANSFER_COEFFICIENT=15.0000, HEAT_TRANSFER_COEFFICIENT_BACK=10., HRRPUA=1., IGNITION_TEMPERATURE=20.0, MATL_ID(1:2,1)='SAMPLE','BACKING', RAMP_EF='IGNITION_RAMP-50-006', RAMP_Q='CONE-RAMP', REFERENCE_HEAT_FLUX=92.4602, REFERENCE_HEAT_FLUX_TIME_INTERVAL=1., REFERENCE_CONE_THICKNESS=0.00600000, THICKNESS(1:2)=0.00600000,0.01270000, /
&RAMP ID='IGNITION_RAMP-50-006', T=0.0, F=63.2691, /
&RAMP ID='IGNITION_RAMP-50-006', T=1.0, F=63.2691, /
&OBST ID='SAMPLE-50-006', SURF_ID='SAMPLE-50-006', XB=0.1000,0.2000,0.0000,0.1000,0.0000,0.0000,DEVC_ID='TIGN-50-006', /
&DEVC ID='WALL TEMPERATURE-50-006', INITIAL_STATE=.FALSE., IOR=3, OUTPUT=.FALSE., QUANTITY='WALL TEMPERATURE', SETPOINT=20.0, XYZ=0.1500,0.0500,0.0000, /
&CTRL ID='IGNITION-CTRL-50-006', FUNCTION_TYPE='ANY', INPUT_ID='WALL TEMPERATURE-50-006', /
&DEVC ID='TIGN-50-006', XYZ=0,0,0, SETPOINT=37.0000, QUANTITY='TIME', INITIAL_STATE=.FALSE., /
&DEVC ID='IGNITION_DEVC-50-006', CTRL_ID='IGNITION-CTRL-50-006', IOR=3, OUTPUT=.FALSE., QUANTITY='CONTROL', XYZ=0.1500,0.0500,0.0000, /
&DEVC ID='HRRPUA-50-006', IOR=3, QUANTITY='HRRPUA', SPEC_ID='PROPANE', XYZ=0.1500,0.0500,0.0000, /
&DEVC ID='IGNITION-TIME-50-006', NO_UPDATE_DEVC_ID='IGNITION_DEVC-50-006', OUTPUT=.FALSE., QUANTITY='TIME', XYZ=0.1500,0.0500,0.0000, /
&SURF ID='SAMPLE-75-006', EXTERNAL_FLUX=1., HEAT_TRANSFER_COEFFICIENT=15.0000, HEAT_TRANSFER_COEFFICIENT_BACK=10., HRRPUA=1., IGNITION_TEMPERATURE=20.0, MATL_ID(1:2,1)='SAMPLE','BACKING', RAMP_EF='IGNITION_RAMP-75-006', RAMP_Q='CONE-RAMP', REFERENCE_HEAT_FLUX=92.4602, REFERENCE_HEAT_FLUX_TIME_INTERVAL=1., REFERENCE_CONE_THICKNESS=0.00600000, THICKNESS(1:2)=0.00600000,0.01270000, /
&RAMP ID='IGNITION_RAMP-75-006', T=0.0, F=92.4602, /
&RAMP ID='IGNITION_RAMP-75-006', T=1.0, F=92.4602, /
&OBST ID='SAMPLE-75-006', SURF_ID='SAMPLE-75-006', XB=0.2000,0.3000,0.0000,0.1000,0.0000,0.0000,DEVC_ID='TIGN-75-006', /
&DEVC ID='WALL TEMPERATURE-75-006', INITIAL_STATE=.FALSE., IOR=3, OUTPUT=.FALSE., QUANTITY='WALL TEMPERATURE', SETPOINT=20.0, XYZ=0.2500,0.0500,0.0000, /
&CTRL ID='IGNITION-CTRL-75-006', FUNCTION_TYPE='ANY', INPUT_ID='WALL TEMPERATURE-75-006', /
&DEVC ID='TIGN-75-006', XYZ=0,0,0, SETPOINT=16.0000, QUANTITY='TIME', INITIAL_STATE=.FALSE., /
&DEVC ID='IGNITION_DEVC-75-006', CTRL_ID='IGNITION-CTRL-75-006', IOR=3, OUTPUT=.FALSE., QUANTITY='CONTROL', XYZ=0.2500,0.0500,0.0000, /
&DEVC ID='HRRPUA-75-006', IOR=3, QUANTITY='HRRPUA', SPEC_ID='PROPANE', XYZ=0.2500,0.0500,0.0000, /
&DEVC ID='IGNITION-TIME-75-006', NO_UPDATE_DEVC_ID='IGNITION_DEVC-75-006', OUTPUT=.FALSE., QUANTITY='TIME', XYZ=0.2500,0.0500,0.0000, /
&SURF ID='SAMPLE-92-006', EXTERNAL_FLUX=1., HEAT_TRANSFER_COEFFICIENT=15.0000, HEAT_TRANSFER_COEFFICIENT_BACK=10., HRRPUA=1., IGNITION_TEMPERATURE=20.0, MATL_ID(1:2,1)='SAMPLE','BACKING', RAMP_EF='IGNITION_RAMP-92-006', RAMP_Q='CONE-RAMP', REFERENCE_HEAT_FLUX=92.4602, REFERENCE_HEAT_FLUX_TIME_INTERVAL=1., REFERENCE_CONE_THICKNESS=0.00600000, THICKNESS(1:2)=0.00600000,0.01270000, /
&RAMP ID='IGNITION_RAMP-92-006', T=0.0, F=111.8109, /
&RAMP ID='IGNITION_RAMP-92-006', T=1.0, F=111.8109, /
&OBST ID='SAMPLE-92-006', SURF_ID='SAMPLE-92-006', XB=0.0000,0.1000,0.1000,0.2000,0.0000,0.0000,DEVC_ID='TIGN-92-006', /
&DEVC ID='WALL TEMPERATURE-92-006', INITIAL_STATE=.FALSE., IOR=3, OUTPUT=.FALSE., QUANTITY='WALL TEMPERATURE', SETPOINT=20.0, XYZ=0.0500,0.1500,0.0000, /
&CTRL ID='IGNITION-CTRL-92-006', FUNCTION_TYPE='ANY', INPUT_ID='WALL TEMPERATURE-92-006', /
&DEVC ID='TIGN-92-006', XYZ=0,0,0, SETPOINT=10.0000, QUANTITY='TIME', INITIAL_STATE=.FALSE., /
&DEVC ID='IGNITION_DEVC-92-006', CTRL_ID='IGNITION-CTRL-92-006', IOR=3, OUTPUT=.FALSE., QUANTITY='CONTROL', XYZ=0.0500,0.1500,0.0000, /
&DEVC ID='HRRPUA-92-006', IOR=3, QUANTITY='HRRPUA', SPEC_ID='PROPANE', XYZ=0.0500,0.1500,0.0000, /
&DEVC ID='IGNITION-TIME-92-006', NO_UPDATE_DEVC_ID='IGNITION_DEVC-92-006', OUTPUT=.FALSE., QUANTITY='TIME', XYZ=0.0500,0.1500,0.0000, /
&SURF ID='SAMPLE-75-009', EXTERNAL_FLUX=1., HEAT_TRANSFER_COEFFICIENT=15.0000, HEAT_TRANSFER_COEFFICIENT_BACK=10., HRRPUA=1., IGNITION_TEMPERATURE=20.0, MATL_ID(1:2,1)='SAMPLE','BACKING', RAMP_EF='IGNITION_RAMP-75-009', RAMP_Q='CONE-RAMP', REFERENCE_HEAT_FLUX=92.4602, REFERENCE_HEAT_FLUX_TIME_INTERVAL=1., REFERENCE_CONE_THICKNESS=0.00600000, THICKNESS(1:2)=0.00900000,0.01270000, /
&RAMP ID='IGNITION_RAMP-75-009', T=0.0, F=92.4602, /
&RAMP ID='IGNITION_RAMP-75-009', T=1.0, F=92.4602, /
&OBST ID='SAMPLE-75-009', SURF_ID='SAMPLE-75-009', XB=0.1000,0.2000,0.1000,0.2000,0.0000,0.0000,DEVC_ID='TIGN-75-009', /
&DEVC ID='WALL TEMPERATURE-75-009', INITIAL_STATE=.FALSE., IOR=3, OUTPUT=.FALSE., QUANTITY='WALL TEMPERATURE', SETPOINT=20.0, XYZ=0.1500,0.1500,0.0000, /
&CTRL ID='IGNITION-CTRL-75-009', FUNCTION_TYPE='ANY', INPUT_ID='WALL TEMPERATURE-75-009', /
&DEVC ID='TIGN-75-009', XYZ=0,0,0, SETPOINT=15.0000, QUANTITY='TIME', INITIAL_STATE=.FALSE., /
&DEVC ID='IGNITION_DEVC-75-009', CTRL_ID='IGNITION-CTRL-75-009', IOR=3, OUTPUT=.FALSE., QUANTITY='CONTROL', XYZ=0.1500,0.1500,0.0000, /
&DEVC ID='HRRPUA-75-009', IOR=3, QUANTITY='HRRPUA', SPEC_ID='PROPANE', XYZ=0.1500,0.1500,0.0000, /
&DEVC ID='IGNITION-TIME-75-009', NO_UPDATE_DEVC_ID='IGNITION_DEVC-75-009', OUTPUT=.FALSE., QUANTITY='TIME', XYZ=0.1500,0.1500,0.0000, /
