&HEAD CHID='FSRI_Cellulose_Insulation', /
&TIME DT=1., T_END=20000.0 /
&DUMP DT_CTRL=1.0, DT_DEVC=1.0, DT_HRR=1.0, SIG_FIGS=4, SIG_FIGS_EXP=2, /
&MISC SOLID_PHASE_ONLY=.TRUE., TMPA=27., /
&MESH ID='MESH', IJK=3,3,3, XB=0.,0.3,0.,0.3,0.,0.3, /
&REAC ID='PROPANE', FUEL='PROPANE', /
&MATL ID='BACKING', CONDUCTIVITY=0.10, DENSITY=65., EMISSIVITY=0.9, SPECIFIC_HEAT=1.14, /
&MATL ID='SAMPLE', CONDUCTIVITY=0.0500, DENSITY=68.0, EMISSIVITY=1.0000, SPECIFIC_HEAT=1741.0000, /
&RAMP ID='CONE-RAMP', T=0.0000, F=10.1, /
&RAMP ID='CONE-RAMP', T=0.9696, F=16.9, /
&RAMP ID='CONE-RAMP', T=1.9392, F=25.7, /
&RAMP ID='CONE-RAMP', T=2.9087, F=36.3, /
&RAMP ID='CONE-RAMP', T=3.8783, F=48.8, /
&RAMP ID='CONE-RAMP', T=4.8479, F=62.8, /
&RAMP ID='CONE-RAMP', T=5.8175, F=77.9, /
&RAMP ID='CONE-RAMP', T=6.7871, F=93.6, /
&RAMP ID='CONE-RAMP', T=7.7567, F=109.5, /
&RAMP ID='CONE-RAMP', T=8.7262, F=124.5, /
&RAMP ID='CONE-RAMP', T=9.6958, F=138.0, /
&RAMP ID='CONE-RAMP', T=10.6654, F=149.3, /
&RAMP ID='CONE-RAMP', T=11.6350, F=158.2, /
&RAMP ID='CONE-RAMP', T=12.6046, F=164.9, /
&RAMP ID='CONE-RAMP', T=13.5741, F=169.4, /
&RAMP ID='CONE-RAMP', T=14.5437, F=171.8, /
&RAMP ID='CONE-RAMP', T=15.5133, F=172.3, /
&RAMP ID='CONE-RAMP', T=16.4829, F=171.4, /
&RAMP ID='CONE-RAMP', T=17.4525, F=169.4, /
&RAMP ID='CONE-RAMP', T=18.4221, F=166.5, /
! ... 503 like lines cut
&SURF ID='SAMPLE-25-037', EXTERNAL_FLUX=1., HEAT_TRANSFER_COEFFICIENT=15.0000, HEAT_TRANSFER_COEFFICIENT_BACK=10., HRRPUA=1., IGNITION_TEMPERATURE=20.0, MATL_ID(1:2,1)='SAMPLE','BACKING', RAMP_EF='IGNITION_RAMP-25-037', RAMP_Q='CONE-RAMP', REFERENCE_HEAT_FLUX=63.9320, REFERENCE_HEAT_FLUX_TIME_INTERVAL=1., REFERENCE_CONE_THICKNESS=0.03772059, THICKNESS(1:2)=0.03772059,0.01270000, /
&RAMP ID='IGNITION_RAMP-25-037', T=0.0, F=32.7799, /
&RAMP ID='IGNITION_RAMP-25-037', T=1.0, F=32.7799, /
&OBST ID='SAMPLE-25-037', SURF_ID='SAMPLE-25-037', XB=0.0000,0.1000,0.0000,0.1000,0.0000,0.0000,DEVC_ID='TIGN-25-037', /
&DEVC ID='WALL TEMPERATURE-25-037', INITIAL_STATE=.FALSE., IOR=3, OUTPUT=.FALSE., QUANTITY='WALL TEMPERATURE', SETPOINT=20.0, XYZ=0.0500,0.0500,0.0000, /
&CTRL ID='IGNITION-CTRL-25-037', FUNCTION_TYPE='ANY', INPUT_ID='WALL TEMPERATURE-25-037', /
&DEVC ID='TIGN-25-037', XYZ=0,0,0, SETPOINT=10.8814, QUANTITY='TIME', INITIAL_STATE=.FALSE., /
&DEVC ID='IGNITION_DEVC-25-037', CTRL_ID='IGNITION-CTRL-25-037', IOR=3, OUTPUT=.FALSE., QUANTITY='CONTROL', XYZ=0.0500,0.0500,0.0000, /
&DEVC ID='HRRPUA-25-037', IOR=3, QUANTITY='HRRPUA', SPEC_ID='PROPANE', XYZ=0.0500,0.0500,0.0000, /
&DEVC ID='IGNITION-TIME-25-037', NO_UPDATE_DEVC_ID='IGNITION_DEVC-25-037', OUTPUT=.FALSE., QUANTITY='TIME', XYZ=0.0500,0.0500,0.0000, /
&SURF ID='SAMPLE-50-037', EXTERNAL_FLUX=1., HEAT_TRANSFER_COEFFICIENT=15.0000, HEAT_TRANSFER_COEFFICIENT_BACK=10., HRRPUA=1., IGNITION_TEMPERATURE=20.0, MATL_ID(1:2,1)='SAMPLE','BACKING', RAMP_EF='IGNITION_RAMP-50-037', RAMP_Q='CONE-RAMP', REFERENCE_HEAT_FLUX=63.9320, REFERENCE_HEAT_FLUX_TIME_INTERVAL=1., REFERENCE_CONE_THICKNESS=0.03772059, THICKNESS(1:2)=0.03772059,0.01270000, /
&RAMP ID='IGNITION_RAMP-50-037', T=0.0, F=63.9320, /
&RAMP ID='IGNITION_RAMP-50-037', T=1.0, F=63.9320, /
&OBST ID='SAMPLE-50-037', SURF_ID='SAMPLE-50-037', XB=0.1000,0.2000,0.0000,0.1000,0.0000,0.0000,DEVC_ID='TIGN-50-037', /
&DEVC ID='WALL TEMPERATURE-50-037', INITIAL_STATE=.FALSE., IOR=3, OUTPUT=.FALSE., QUANTITY='WALL TEMPERATURE', SETPOINT=20.0, XYZ=0.1500,0.0500,0.0000, /
&CTRL ID='IGNITION-CTRL-50-037', FUNCTION_TYPE='ANY', INPUT_ID='WALL TEMPERATURE-50-037', /
&DEVC ID='TIGN-50-037', XYZ=0,0,0, SETPOINT=10.1283, QUANTITY='TIME', INITIAL_STATE=.FALSE., /
&DEVC ID='IGNITION_DEVC-50-037', CTRL_ID='IGNITION-CTRL-50-037', IOR=3, OUTPUT=.FALSE., QUANTITY='CONTROL', XYZ=0.1500,0.0500,0.0000, /
&DEVC ID='HRRPUA-50-037', IOR=3, QUANTITY='HRRPUA', SPEC_ID='PROPANE', XYZ=0.1500,0.0500,0.0000, /
&DEVC ID='IGNITION-TIME-50-037', NO_UPDATE_DEVC_ID='IGNITION_DEVC-50-037', OUTPUT=.FALSE., QUANTITY='TIME', XYZ=0.1500,0.0500,0.0000, /
&SURF ID='SAMPLE-75-037', EXTERNAL_FLUX=1., HEAT_TRANSFER_COEFFICIENT=15.0000, HEAT_TRANSFER_COEFFICIENT_BACK=10., HRRPUA=1., IGNITION_TEMPERATURE=20.0, MATL_ID(1:2,1)='SAMPLE','BACKING', RAMP_EF='IGNITION_RAMP-75-037', RAMP_Q='CONE-RAMP', REFERENCE_HEAT_FLUX=63.9320, REFERENCE_HEAT_FLUX_TIME_INTERVAL=1., REFERENCE_CONE_THICKNESS=0.03772059, THICKNESS(1:2)=0.03772059,0.01270000, /
&RAMP ID='IGNITION_RAMP-75-037', T=0.0, F=93.2013, /
&RAMP ID='IGNITION_RAMP-75-037', T=1.0, F=93.2013, /
&OBST ID='SAMPLE-75-037', SURF_ID='SAMPLE-75-037', XB=0.2000,0.3000,0.0000,0.1000,0.0000,0.0000,DEVC_ID='TIGN-75-037', /
&DEVC ID='WALL TEMPERATURE-75-037', INITIAL_STATE=.FALSE., IOR=3, OUTPUT=.FALSE., QUANTITY='WALL TEMPERATURE', SETPOINT=20.0, XYZ=0.2500,0.0500,0.0000, /
&CTRL ID='IGNITION-CTRL-75-037', FUNCTION_TYPE='ANY', INPUT_ID='WALL TEMPERATURE-75-037', /
&DEVC ID='TIGN-75-037', XYZ=0,0,0, SETPOINT=6.3529, QUANTITY='TIME', INITIAL_STATE=.FALSE., /
&DEVC ID='IGNITION_DEVC-75-037', CTRL_ID='IGNITION-CTRL-75-037', IOR=3, OUTPUT=.FALSE., QUANTITY='CONTROL', XYZ=0.2500,0.0500,0.0000, /
&DEVC ID='HRRPUA-75-037', IOR=3, QUANTITY='HRRPUA', SPEC_ID='PROPANE', XYZ=0.2500,0.0500,0.0000, /
&DEVC ID='IGNITION-TIME-75-037', NO_UPDATE_DEVC_ID='IGNITION_DEVC-75-037', OUTPUT=.FALSE., QUANTITY='TIME', XYZ=0.2500,0.0500,0.0000, /
