&HEAD CHID='FSRI_Polyester_Microfiber_Sheet', /
&TIME DT=1., T_END=2915.9 /
&DUMP DT_CTRL=1.0, DT_DEVC=1.0, DT_HRR=1.0, SIG_FIGS=4, SIG_FIGS_EXP=2, /
&MISC SOLID_PHASE_ONLY=.TRUE., TMPA=27., /
&MESH ID='MESH', IJK=3,3,3, XB=0.,0.3,0.,0.3,0.,0.3, /
&REAC ID='PROPANE', FUEL='PROPANE', /
&MATL ID='BACKING', CONDUCTIVITY=0.10, DENSITY=65., EMISSIVITY=0.9, SPECIFIC_HEAT=1.14, /
&MATL ID='SAMPLE', CONDUCTIVITY=0.0190, DENSITY=457.3, EMISSIVITY=1.0000, SPECIFIC_HEAT=2084.0000, /
&RAMP ID='CONE-RAMP', T=0.0000, F=2.0, /
&RAMP ID='CONE-RAMP', T=2.8125, F=14.7, /
&RAMP ID='CONE-RAMP', T=5.6250, F=47.5, /
&RAMP ID='CONE-RAMP', T=8.4375, F=114.7, /
&RAMP ID='CONE-RAMP', T=11.2500, F=213.5, /
&RAMP ID='CONE-RAMP', T=14.0625, F=316.3, /
&RAMP ID='CONE-RAMP', T=16.8750, F=390.7, /
&RAMP ID='CONE-RAMP', T=19.6875, F=409.4, /
&RAMP ID='CONE-RAMP', T=22.5000, F=372.2, /
&RAMP ID='CONE-RAMP', T=25.3125, F=306.9, /
&RAMP ID='CONE-RAMP', T=28.1250, F=235.6, /
&RAMP ID='CONE-RAMP', T=30.9375, F=176.3, /
&RAMP ID='CONE-RAMP', T=33.7500, F=132.8, /
&RAMP ID='CONE-RAMP', T=36.5625, F=102.3, /
&RAMP ID='CONE-RAMP', T=39.3750, F=81.5, /
&RAMP ID='CONE-RAMP', T=42.1875, F=66.7, /
&RAMP ID='CONE-RAMP', T=45.0000, F=56.7, /
&RAMP ID='CONE-RAMP', T=47.8125, F=49.6, /
&RAMP ID='CONE-RAMP', T=50.6250, F=44.3, /
&RAMP ID='CONE-RAMP', T=53.4375, F=40.3, /
! ... 61 like lines cut
&SURF ID='SAMPLE-25-001', EXTERNAL_FLUX=1., HEAT_TRANSFER_COEFFICIENT=15.0000, HEAT_TRANSFER_COEFFICIENT_BACK=10., HRRPUA=1., IGNITION_TEMPERATURE=20.0, MATL_ID(1:2,1)='SAMPLE','BACKING', RAMP_EF='IGNITION_RAMP-25-001', RAMP_Q='CONE-RAMP', REFERENCE_HEAT_FLUX=75.8722, REFERENCE_HEAT_FLUX_TIME_INTERVAL=1., REFERENCE_CONE_THICKNESS=0.00103863, THICKNESS(1:2)=0.00103863,0.01270000, /
&RAMP ID='IGNITION_RAMP-25-001', T=0.0, F=43.1628, /
&RAMP ID='IGNITION_RAMP-25-001', T=1.0, F=43.1628, /
&OBST ID='SAMPLE-25-001', SURF_ID='SAMPLE-25-001', XB=0.0000,0.1000,0.0000,0.1000,0.0000,0.0000,DEVC_ID='TIGN-25-001', /
&DEVC ID='WALL TEMPERATURE-25-001', INITIAL_STATE=.FALSE., IOR=3, OUTPUT=.FALSE., QUANTITY='WALL TEMPERATURE', SETPOINT=20.0, XYZ=0.0500,0.0500,0.0000, /
&CTRL ID='IGNITION-CTRL-25-001', FUNCTION_TYPE='ANY', INPUT_ID='WALL TEMPERATURE-25-001', /
&DEVC ID='TIGN-25-001', XYZ=0,0,0, SETPOINT=399.9383, QUANTITY='TIME', INITIAL_STATE=.FALSE., /
&DEVC ID='IGNITION_DEVC-25-001', CTRL_ID='IGNITION-CTRL-25-001', IOR=3, OUTPUT=.FALSE., QUANTITY='CONTROL', XYZ=0.0500,0.0500,0.0000, /
&DEVC ID='HRRPUA-25-001', IOR=3, QUANTITY='HRRPUA', SPEC_ID='PROPANE', XYZ=0.0500,0.0500,0.0000, /
&DEVC ID='IGNITION-TIME-25-001', NO_UPDATE_DEVC_ID='IGNITION_DEVC-25-001', OUTPUT=.FALSE., QUANTITY='TIME', XYZ=0.0500,0.0500,0.0000, /
&SURF ID='SAMPLE-50-001', EXTERNAL_FLUX=1., HEAT_TRANSFER_COEFFICIENT=15.0000, HEAT_TRANSFER_COEFFICIENT_BACK=10., HRRPUA=1., IGNITION_TEMPERATURE=20.0, MATL_ID(1:2,1)='SAMPLE','BACKING', RAMP_EF='IGNITION_RAMP-50-001', RAMP_Q='CONE-RAMP', REFERENCE_HEAT_FLUX=75.8722, REFERENCE_HEAT_FLUX_TIME_INTERVAL=1., REFERENCE_CONE_THICKNESS=0.00103863, THICKNESS(1:2)=0.00103863,0.01270000, /
&RAMP ID='IGNITION_RAMP-50-001', T=0.0, F=75.8722, /
&RAMP ID='IGNITION_RAMP-50-001', T=1.0, F=75.8722, /
&OBST ID='SAMPLE-50-001', SURF_ID='SAMPLE-50-001', XB=0.1000,0.2000,0.0000,0.1000,0.0000,0.0000,DEVC_ID='TIGN-50-001', /
&DEVC ID='WALL TEMPERATURE-50-001', INITIAL_STATE=.FALSE., IOR=3, OUTPUT=.FALSE., QUANTITY='WALL TEMPERATURE', SETPOINT=20.0, XYZ=0.1500,0.0500,0.0000, /
&CTRL ID='IGNITION-CTRL-50-001', FUNCTION_TYPE='ANY', INPUT_ID='WALL TEMPERATURE-50-001', /
&DEVC ID='TIGN-50-001', XYZ=0,0,0, SETPOINT=36.7500, QUANTITY='TIME', INITIAL_STATE=.FALSE., /
&DEVC ID='IGNITION_DEVC-50-001', CTRL_ID='IGNITION-CTRL-50-001', IOR=3, OUTPUT=.FALSE., QUANTITY='CONTROL', XYZ=0.1500,0.0500,0.0000, /
&DEVC ID='HRRPUA-50-001', IOR=3, QUANTITY='HRRPUA', SPEC_ID='PROPANE', XYZ=0.1500,0.0500,0.0000, /
&DEVC ID='IGNITION-TIME-50-001', NO_UPDATE_DEVC_ID='IGNITION_DEVC-50-001', OUTPUT=.FALSE., QUANTITY='TIME', XYZ=0.1500,0.0500,0.0000, /
&SURF ID='SAMPLE-75-001', EXTERNAL_FLUX=1., HEAT_TRANSFER_COEFFICIENT=15.0000, HEAT_TRANSFER_COEFFICIENT_BACK=10., HRRPUA=1., IGNITION_TEMPERATURE=20.0, MATL_ID(1:2,1)='SAMPLE','BACKING', RAMP_EF='IGNITION_RAMP-75-001', RAMP_Q='CONE-RAMP', REFERENCE_HEAT_FLUX=75.8722, REFERENCE_HEAT_FLUX_TIME_INTERVAL=1., REFERENCE_CONE_THICKNESS=0.00103863, THICKNESS(1:2)=0.00103863,0.01270000, /
&RAMP ID='IGNITION_RAMP-75-001', T=0.0, F=106.4021, /
&RAMP ID='IGNITION_RAMP-75-001', T=1.0, F=106.4021, /
&OBST ID='SAMPLE-75-001', SURF_ID='SAMPLE-75-001', XB=0.2000,0.3000,0.0000,0.1000,0.0000,0.0000,DEVC_ID='TIGN-75-001', /
&DEVC ID='WALL TEMPERATURE-75-001', INITIAL_STATE=.FALSE., IOR=3, OUTPUT=.FALSE., QUANTITY='WALL TEMPERATURE', SETPOINT=20.0, XYZ=0.2500,0.0500,0.0000, /
&CTRL ID='IGNITION-CTRL-75-001', FUNCTION_TYPE='ANY', INPUT_ID='WALL TEMPERATURE-75-001', /
&DEVC ID='TIGN-75-001', XYZ=0,0,0, SETPOINT=14.2209, QUANTITY='TIME', INITIAL_STATE=.FALSE., /
&DEVC ID='IGNITION_DEVC-75-001', CTRL_ID='IGNITION-CTRL-75-001', IOR=3, OUTPUT=.FALSE., QUANTITY='CONTROL', XYZ=0.2500,0.0500,0.0000, /
&DEVC ID='HRRPUA-75-001', IOR=3, QUANTITY='HRRPUA', SPEC_ID='PROPANE', XYZ=0.2500,0.0500,0.0000, /
&DEVC ID='IGNITION-TIME-75-001', NO_UPDATE_DEVC_ID='IGNITION_DEVC-75-001', OUTPUT=.FALSE., QUANTITY='TIME', XYZ=0.2500,0.0500,0.0000, /
