&HEAD CHID='FSRI_Rubber_Foam_Pipe_Insulation', /
&TIME DT=1., T_END=20000.0 /
&DUMP DT_CTRL=1.0, DT_DEVC=1.0, DT_HRR=1.0, SIG_FIGS=4, SIG_FIGS_EXP=2, /
&MISC SOLID_PHASE_ONLY=.TRUE., TMPA=27., /
&MESH ID='MESH', IJK=3,3,3, XB=0.,0.3,0.,0.3,0.,0.3, /
&REAC ID='PROPANE', FUEL='PROPANE', /
&MATL ID='BACKING', CONDUCTIVITY=0.10, DENSITY=65., EMISSIVITY=0.9, SPECIFIC_HEAT=1.14, /
&MATL ID='SAMPLE', CONDUCTIVITY=0.0380, DENSITY=51.7, EMISSIVITY=1.0000, SPECIFIC_HEAT=1465.0000, /
&RAMP ID='CONE-RAMP', T=0.0000, F=0.0, /
&RAMP ID='CONE-RAMP', T=0.0250, F=67.5, /
&RAMP ID='CONE-RAMP', T=0.9980, F=85.7, /
&RAMP ID='CONE-RAMP', T=1.9709, F=104.3, /
&RAMP ID='CONE-RAMP', T=2.9439, F=123.1, /
&RAMP ID='CONE-RAMP', T=3.9169, F=141.8, /
&RAMP ID='CONE-RAMP', T=4.8899, F=160.3, /
&RAMP ID='CONE-RAMP', T=5.8628, F=174.3, /
&RAMP ID='CONE-RAMP', T=6.8358, F=183.6, /
&RAMP ID='CONE-RAMP', T=7.8088, F=189.9, /
&RAMP ID='CONE-RAMP', T=8.7818, F=193.9, /
&RAMP ID='CONE-RAMP', T=9.7547, F=196.3, /
&RAMP ID='CONE-RAMP', T=10.7277, F=197.9, /
&RAMP ID='CONE-RAMP', T=11.7007, F=199.2, /
&RAMP ID='CONE-RAMP', T=12.6736, F=200.5, /
&RAMP ID='CONE-RAMP', T=13.6466, F=202.0, /
&RAMP ID='CONE-RAMP', T=14.6196, F=203.8, /
&RAMP ID='CONE-RAMP', T=15.5926, F=205.7, /
&RAMP ID='CONE-RAMP', T=16.5655, F=207.6, /
&RAMP ID='CONE-RAMP', T=17.5385, F=209.4, /
! ... 167 like lines cut
&SURF ID='SAMPLE-25-012', EXTERNAL_FLUX=1., HEAT_TRANSFER_COEFFICIENT=15.0000, HEAT_TRANSFER_COEFFICIENT_BACK=10., HRRPUA=1., IGNITION_TEMPERATURE=20.0, MATL_ID(1:2,1)='SAMPLE','BACKING', RAMP_EF='IGNITION_RAMP-25-012', RAMP_Q='CONE-RAMP', REFERENCE_HEAT_FLUX=75.0000, REFERENCE_HEAT_FLUX_TIME_INTERVAL=1., REFERENCE_CONE_THICKNESS=0.01277419, THICKNESS(1:2)=0.01277419,0.01270000, /
&RAMP ID='IGNITION_RAMP-25-012', T=0.0, F=50.0000, /
&RAMP ID='IGNITION_RAMP-25-012', T=1.0, F=50.0000, /
&OBST ID='SAMPLE-25-012', SURF_ID='SAMPLE-25-012', XB=0.0000,0.1000,0.0000,0.1000,0.0000,0.0000,DEVC_ID='TIGN-25-012', /
&DEVC ID='WALL TEMPERATURE-25-012', INITIAL_STATE=.FALSE., IOR=3, OUTPUT=.FALSE., QUANTITY='WALL TEMPERATURE', SETPOINT=20.0, XYZ=0.0500,0.0500,0.0000, /
&CTRL ID='IGNITION-CTRL-25-012', FUNCTION_TYPE='ANY', INPUT_ID='WALL TEMPERATURE-25-012', /
&DEVC ID='TIGN-25-012', XYZ=0,0,0, SETPOINT=0.2500, QUANTITY='TIME', INITIAL_STATE=.FALSE., /
&DEVC ID='IGNITION_DEVC-25-012', CTRL_ID='IGNITION-CTRL-25-012', IOR=3, OUTPUT=.FALSE., QUANTITY='CONTROL', XYZ=0.0500,0.0500,0.0000, /
&DEVC ID='HRRPUA-25-012', IOR=3, QUANTITY='HRRPUA', SPEC_ID='PROPANE', XYZ=0.0500,0.0500,0.0000, /
&DEVC ID='IGNITION-TIME-25-012', NO_UPDATE_DEVC_ID='IGNITION_DEVC-25-012', OUTPUT=.FALSE., QUANTITY='TIME', XYZ=0.0500,0.0500,0.0000, /
&SURF ID='SAMPLE-50-012', EXTERNAL_FLUX=1., HEAT_TRANSFER_COEFFICIENT=15.0000, HEAT_TRANSFER_COEFFICIENT_BACK=10., HRRPUA=1., IGNITION_TEMPERATURE=20.0, MATL_ID(1:2,1)='SAMPLE','BACKING', RAMP_EF='IGNITION_RAMP-50-012', RAMP_Q='CONE-RAMP', REFERENCE_HEAT_FLUX=75.0000, REFERENCE_HEAT_FLUX_TIME_INTERVAL=1., REFERENCE_CONE_THICKNESS=0.01277419, THICKNESS(1:2)=0.01277419,0.01270000, /
&RAMP ID='IGNITION_RAMP-50-012', T=0.0, F=75.0000, /
&RAMP ID='IGNITION_RAMP-50-012', T=1.0, F=75.0000, /
&OBST ID='SAMPLE-50-012', SURF_ID='SAMPLE-50-012', XB=0.1000,0.2000,0.0000,0.1000,0.0000,0.0000,DEVC_ID='TIGN-50-012', /
&DEVC ID='WALL TEMPERATURE-50-012', INITIAL_STATE=.FALSE., IOR=3, OUTPUT=.FALSE., QUANTITY='WALL TEMPERATURE', SETPOINT=20.0, XYZ=0.1500,0.0500,0.0000, /
&CTRL ID='IGNITION-CTRL-50-012', FUNCTION_TYPE='ANY', INPUT_ID='WALL TEMPERATURE-50-012', /
&DEVC ID='TIGN-50-012', XYZ=0,0,0, SETPOINT=0.2250, QUANTITY='TIME', INITIAL_STATE=.FALSE., /
&DEVC ID='IGNITION_DEVC-50-012', CTRL_ID='IGNITION-CTRL-50-012', IOR=3, OUTPUT=.FALSE., QUANTITY='CONTROL', XYZ=0.1500,0.0500,0.0000, /
&DEVC ID='HRRPUA-50-012', IOR=3, QUANTITY='HRRPUA', SPEC_ID='PROPANE', XYZ=0.1500,0.0500,0.0000, /
&DEVC ID='IGNITION-TIME-50-012', NO_UPDATE_DEVC_ID='IGNITION_DEVC-50-012', OUTPUT=.FALSE., QUANTITY='TIME', XYZ=0.1500,0.0500,0.0000, /
&SURF ID='SAMPLE-75-012', EXTERNAL_FLUX=1., HEAT_TRANSFER_COEFFICIENT=15.0000, HEAT_TRANSFER_COEFFICIENT_BACK=10., HRRPUA=1., IGNITION_TEMPERATURE=20.0, MATL_ID(1:2,1)='SAMPLE','BACKING', RAMP_EF='IGNITION_RAMP-75-012', RAMP_Q='CONE-RAMP', REFERENCE_HEAT_FLUX=75.0000, REFERENCE_HEAT_FLUX_TIME_INTERVAL=1., REFERENCE_CONE_THICKNESS=0.01277419, THICKNESS(1:2)=0.01277419,0.01270000, /
&RAMP ID='IGNITION_RAMP-75-012', T=0.0, F=100.0000, /
&RAMP ID='IGNITION_RAMP-75-012', T=1.0, F=100.0000, /
&OBST ID='SAMPLE-75-012', SURF_ID='SAMPLE-75-012', XB=0.2000,0.3000,0.0000,0.1000,0.0000,0.0000,DEVC_ID='TIGN-75-012', /
&DEVC ID='WALL TEMPERATURE-75-012', INITIAL_STATE=.FALSE., IOR=3, OUTPUT=.FALSE., QUANTITY='WALL TEMPERATURE', SETPOINT=20.0, XYZ=0.2500,0.0500,0.0000, /
&CTRL ID='IGNITION-CTRL-75-012', FUNCTION_TYPE='ANY', INPUT_ID='WALL TEMPERATURE-75-012', /
&DEVC ID='TIGN-75-012', XYZ=0,0,0, SETPOINT=0.2250, QUANTITY='TIME', INITIAL_STATE=.FALSE., /
&DEVC ID='IGNITION_DEVC-75-012', CTRL_ID='IGNITION-CTRL-75-012', IOR=3, OUTPUT=.FALSE., QUANTITY='CONTROL', XYZ=0.2500,0.0500,0.0000, /
&DEVC ID='HRRPUA-75-012', IOR=3, QUANTITY='HRRPUA', SPEC_ID='PROPANE', XYZ=0.2500,0.0500,0.0000, /
&DEVC ID='IGNITION-TIME-75-012', NO_UPDATE_DEVC_ID='IGNITION_DEVC-75-012', OUTPUT=.FALSE., QUANTITY='TIME', XYZ=0.2500,0.0500,0.0000, /
