&HEAD CHID='FSRI_Roof_Felt', /
&TIME DT=1., T_END=20000.0 /
&DUMP DT_CTRL=1.0, DT_DEVC=1.0, DT_HRR=1.0, SIG_FIGS=4, SIG_FIGS_EXP=2, /
&MISC SOLID_PHASE_ONLY=.TRUE., TMPA=27., /
&MESH ID='MESH', IJK=3,3,3, XB=0.,0.3,0.,0.3,0.,0.3, /
&REAC ID='PROPANE', FUEL='PROPANE', /
&MATL ID='BACKING', CONDUCTIVITY=0.10, DENSITY=65., EMISSIVITY=0.9, SPECIFIC_HEAT=1.14, /
&MATL ID='SAMPLE', CONDUCTIVITY=0.0580, DENSITY=726.3, EMISSIVITY=1.0000, SPECIFIC_HEAT=1743.0000, /
&RAMP ID='CONE-RAMP', T=0.0000, F=6.0, /
&RAMP ID='CONE-RAMP', T=0.9712, F=16.4, /
&RAMP ID='CONE-RAMP', T=1.9424, F=32.0, /
&RAMP ID='CONE-RAMP', T=2.9137, F=54.7, /
&RAMP ID='CONE-RAMP', T=3.8849, F=85.2, /
&RAMP ID='CONE-RAMP', T=4.8561, F=123.2, /
&RAMP ID='CONE-RAMP', T=5.8273, F=168.5, /
&RAMP ID='CONE-RAMP', T=6.7986, F=220.3, /
&RAMP ID='CONE-RAMP', T=7.7698, F=279.6, /
&RAMP ID='CONE-RAMP', T=8.7410, F=345.3, /
&RAMP ID='CONE-RAMP', T=9.7122, F=412.3, /
&RAMP ID='CONE-RAMP', T=10.6835, F=479.3, /
&RAMP ID='CONE-RAMP', T=11.6547, F=545.7, /
&RAMP ID='CONE-RAMP', T=12.6259, F=606.9, /
&RAMP ID='CONE-RAMP', T=13.5971, F=661.0, /
&RAMP ID='CONE-RAMP', T=14.5683, F=706.0, /
&RAMP ID='CONE-RAMP', T=15.5396, F=739.1, /
&RAMP ID='CONE-RAMP', T=16.5108, F=761.4, /
&RAMP ID='CONE-RAMP', T=17.4820, F=769.9, /
&RAMP ID='CONE-RAMP', T=18.4532, F=764.0, /
! ... 259 like lines cut
&SURF ID='SAMPLE-25-001', EXTERNAL_FLUX=1., HEAT_TRANSFER_COEFFICIENT=15.0000, HEAT_TRANSFER_COEFFICIENT_BACK=10., HRRPUA=1., IGNITION_TEMPERATURE=20.0, MATL_ID(1:2,1)='SAMPLE','BACKING', RAMP_EF='IGNITION_RAMP-25-001', RAMP_Q='CONE-RAMP', REFERENCE_HEAT_FLUX=75.0000, REFERENCE_HEAT_FLUX_TIME_INTERVAL=1., REFERENCE_CONE_THICKNESS=0.00107308, THICKNESS(1:2)=0.00107308,0.01270000, /
&RAMP ID='IGNITION_RAMP-25-001', T=0.0, F=53.6244, /
&RAMP ID='IGNITION_RAMP-25-001', T=1.0, F=53.6244, /
&OBST ID='SAMPLE-25-001', SURF_ID='SAMPLE-25-001', XB=0.0000,0.1000,0.0000,0.1000,0.0000,0.0000,DEVC_ID='TIGN-25-001', /
&DEVC ID='WALL TEMPERATURE-25-001', INITIAL_STATE=.FALSE., IOR=3, OUTPUT=.FALSE., QUANTITY='WALL TEMPERATURE', SETPOINT=20.0, XYZ=0.0500,0.0500,0.0000, /
&CTRL ID='IGNITION-CTRL-25-001', FUNCTION_TYPE='ANY', INPUT_ID='WALL TEMPERATURE-25-001', /
&DEVC ID='TIGN-25-001', XYZ=0,0,0, SETPOINT=30.9717, QUANTITY='TIME', INITIAL_STATE=.FALSE., /
&DEVC ID='IGNITION_DEVC-25-001', CTRL_ID='IGNITION-CTRL-25-001', IOR=3, OUTPUT=.FALSE., QUANTITY='CONTROL', XYZ=0.0500,0.0500,0.0000, /
&DEVC ID='HRRPUA-25-001', IOR=3, QUANTITY='HRRPUA', SPEC_ID='PROPANE', XYZ=0.0500,0.0500,0.0000, /
&DEVC ID='IGNITION-TIME-25-001', NO_UPDATE_DEVC_ID='IGNITION_DEVC-25-001', OUTPUT=.FALSE., QUANTITY='TIME', XYZ=0.0500,0.0500,0.0000, /
&SURF ID='SAMPLE-50-001', EXTERNAL_FLUX=1., HEAT_TRANSFER_COEFFICIENT=15.0000, HEAT_TRANSFER_COEFFICIENT_BACK=10., HRRPUA=1., IGNITION_TEMPERATURE=20.0, MATL_ID(1:2,1)='SAMPLE','BACKING', RAMP_EF='IGNITION_RAMP-50-001', RAMP_Q='CONE-RAMP', REFERENCE_HEAT_FLUX=75.0000, REFERENCE_HEAT_FLUX_TIME_INTERVAL=1., REFERENCE_CONE_THICKNESS=0.00107308, THICKNESS(1:2)=0.00107308,0.01270000, /
&RAMP ID='IGNITION_RAMP-50-001', T=0.0, F=87.4723, /
&RAMP ID='IGNITION_RAMP-50-001', T=1.0, F=87.4723, /
&OBST ID='SAMPLE-50-001', SURF_ID='SAMPLE-50-001', XB=0.1000,0.2000,0.0000,0.1000,0.0000,0.0000,DEVC_ID='TIGN-50-001', /
&DEVC ID='WALL TEMPERATURE-50-001', INITIAL_STATE=.FALSE., IOR=3, OUTPUT=.FALSE., QUANTITY='WALL TEMPERATURE', SETPOINT=20.0, XYZ=0.1500,0.0500,0.0000, /
&CTRL ID='IGNITION-CTRL-50-001', FUNCTION_TYPE='ANY', INPUT_ID='WALL TEMPERATURE-50-001', /
&DEVC ID='TIGN-50-001', XYZ=0,0,0, SETPOINT=7.2500, QUANTITY='TIME', INITIAL_STATE=.FALSE., /
&DEVC ID='IGNITION_DEVC-50-001', CTRL_ID='IGNITION-CTRL-50-001', IOR=3, OUTPUT=.FALSE., QUANTITY='CONTROL', XYZ=0.1500,0.0500,0.0000, /
&DEVC ID='HRRPUA-50-001', IOR=3, QUANTITY='HRRPUA', SPEC_ID='PROPANE', XYZ=0.1500,0.0500,0.0000, /
&DEVC ID='IGNITION-TIME-50-001', NO_UPDATE_DEVC_ID='IGNITION_DEVC-50-001', OUTPUT=.FALSE., QUANTITY='TIME', XYZ=0.1500,0.0500,0.0000, /
&SURF ID='SAMPLE-75-001', EXTERNAL_FLUX=1., HEAT_TRANSFER_COEFFICIENT=15.0000, HEAT_TRANSFER_COEFFICIENT_BACK=10., HRRPUA=1., IGNITION_TEMPERATURE=20.0, MATL_ID(1:2,1)='SAMPLE','BACKING', RAMP_EF='IGNITION_RAMP-75-001', RAMP_Q='CONE-RAMP', REFERENCE_HEAT_FLUX=75.0000, REFERENCE_HEAT_FLUX_TIME_INTERVAL=1., REFERENCE_CONE_THICKNESS=0.00107308, THICKNESS(1:2)=0.00107308,0.01270000, /
&RAMP ID='IGNITION_RAMP-75-001', T=0.0, F=118.9918, /
&RAMP ID='IGNITION_RAMP-75-001', T=1.0, F=118.9918, /
&OBST ID='SAMPLE-75-001', SURF_ID='SAMPLE-75-001', XB=0.2000,0.3000,0.0000,0.1000,0.0000,0.0000,DEVC_ID='TIGN-75-001', /
&DEVC ID='WALL TEMPERATURE-75-001', INITIAL_STATE=.FALSE., IOR=3, OUTPUT=.FALSE., QUANTITY='WALL TEMPERATURE', SETPOINT=20.0, XYZ=0.2500,0.0500,0.0000, /
&CTRL ID='IGNITION-CTRL-75-001', FUNCTION_TYPE='ANY', INPUT_ID='WALL TEMPERATURE-75-001', /
&DEVC ID='TIGN-75-001', XYZ=0,0,0, SETPOINT=2.0000, QUANTITY='TIME', INITIAL_STATE=.FALSE., /
&DEVC ID='IGNITION_DEVC-75-001', CTRL_ID='IGNITION-CTRL-75-001', IOR=3, OUTPUT=.FALSE., QUANTITY='CONTROL', XYZ=0.2500,0.0500,0.0000, /
&DEVC ID='HRRPUA-75-001', IOR=3, QUANTITY='HRRPUA', SPEC_ID='PROPANE', XYZ=0.2500,0.0500,0.0000, /
&DEVC ID='IGNITION-TIME-75-001', NO_UPDATE_DEVC_ID='IGNITION_DEVC-75-001', OUTPUT=.FALSE., QUANTITY='TIME', XYZ=0.2500,0.0500,0.0000, /
