&HEAD CHID='FSRI_LDPE', /
&TIME DT=1., T_END=20000.0 /
&DUMP DT_CTRL=1.0, DT_DEVC=1.0, DT_HRR=1.0, SIG_FIGS=4, SIG_FIGS_EXP=2, /
&MISC SOLID_PHASE_ONLY=.TRUE., TMPA=27., /
&MESH ID='MESH', IJK=3,3,3, XB=0.,0.3,0.,0.3,0.,0.3, /
&REAC ID='PROPANE', FUEL='PROPANE', /
&MATL ID='BACKING', CONDUCTIVITY=0.10, DENSITY=65., EMISSIVITY=0.9, SPECIFIC_HEAT=1.14, /
&MATL ID='SAMPLE', CONDUCTIVITY=0.2170, DENSITY=927.3, EMISSIVITY=1.0000, SPECIFIC_HEAT=2600.0000, /
&RAMP ID='CONE-RAMP', T=0.0000, F=33.7, /
&RAMP ID='CONE-RAMP', T=0.9712, F=40.5, /
&RAMP ID='CONE-RAMP', T=1.9424, F=47.2, /
&RAMP ID='CONE-RAMP', T=2.9137, F=53.8, /
&RAMP ID='CONE-RAMP', T=3.8849, F=60.7, /
&RAMP ID='CONE-RAMP', T=4.8561, F=67.7, /
&RAMP ID='CONE-RAMP', T=5.8273, F=74.9, /
&RAMP ID='CONE-RAMP', T=6.7986, F=82.1, /
&RAMP ID='CONE-RAMP', T=7.7698, F=89.4, /
&RAMP ID='CONE-RAMP', T=8.7410, F=97.0, /
&RAMP ID='CONE-RAMP', T=9.7122, F=104.8, /
&RAMP ID='CONE-RAMP', T=10.6835, F=113.0, /
&RAMP ID='CONE-RAMP', T=11.6547, F=121.5, /
&RAMP ID='CONE-RAMP', T=12.6259, F=130.6, /
&RAMP ID='CONE-RAMP', T=13.5971, F=140.1, /
&RAMP ID='CONE-RAMP', T=14.5683, F=150.0, /
&RAMP ID='CONE-RAMP', T=15.5396, F=160.2, /
&RAMP ID='CONE-RAMP', T=16.5108, F=170.8, /
&RAMP ID='CONE-RAMP', T=17.4820, F=182.0, /
&RAMP ID='CONE-RAMP', T=18.4532, F=193.2, /
! ... 254 like lines cut
&SURF ID='SAMPLE-25-003', EXTERNAL_FLUX=1., HEAT_TRANSFER_COEFFICIENT=15.0000, HEAT_TRANSFER_COEFFICIENT_BACK=10., HRRPUA=1., IGNITION_TEMPERATURE=20.0, MATL_ID(1:2,1)='SAMPLE','BACKING', RAMP_EF='IGNITION_RAMP-25-003', RAMP_Q='CONE-RAMP', REFERENCE_HEAT_FLUX=75.0000, REFERENCE_HEAT_FLUX_TIME_INTERVAL=1., REFERENCE_CONE_THICKNESS=0.00324587, THICKNESS(1:2)=0.00324587,0.01270000, /
&RAMP ID='IGNITION_RAMP-25-003', T=0.0, F=50.0000, /
&RAMP ID='IGNITION_RAMP-25-003', T=1.0, F=50.0000, /
&OBST ID='SAMPLE-25-003', SURF_ID='SAMPLE-25-003', XB=0.0000,0.1000,0.0000,0.1000,0.0000,0.0000,DEVC_ID='TIGN-25-003', /
&DEVC ID='WALL TEMPERATURE-25-003', INITIAL_STATE=.FALSE., IOR=3, OUTPUT=.FALSE., QUANTITY='WALL TEMPERATURE', SETPOINT=20.0, XYZ=0.0500,0.0500,0.0000, /
&CTRL ID='IGNITION-CTRL-25-003', FUNCTION_TYPE='ANY', INPUT_ID='WALL TEMPERATURE-25-003', /
&DEVC ID='TIGN-25-003', XYZ=0,0,0, SETPOINT=115.0114, QUANTITY='TIME', INITIAL_STATE=.FALSE., /
&DEVC ID='IGNITION_DEVC-25-003', CTRL_ID='IGNITION-CTRL-25-003', IOR=3, OUTPUT=.FALSE., QUANTITY='CONTROL', XYZ=0.0500,0.0500,0.0000, /
&DEVC ID='HRRPUA-25-003', IOR=3, QUANTITY='HRRPUA', SPEC_ID='PROPANE', XYZ=0.0500,0.0500,0.0000, /
&DEVC ID='IGNITION-TIME-25-003', NO_UPDATE_DEVC_ID='IGNITION_DEVC-25-003', OUTPUT=.FALSE., QUANTITY='TIME', XYZ=0.0500,0.0500,0.0000, /
&SURF ID='SAMPLE-50-003', EXTERNAL_FLUX=1., HEAT_TRANSFER_COEFFICIENT=15.0000, HEAT_TRANSFER_COEFFICIENT_BACK=10., HRRPUA=1., IGNITION_TEMPERATURE=20.0, MATL_ID(1:2,1)='SAMPLE','BACKING', RAMP_EF='IGNITION_RAMP-50-003', RAMP_Q='CONE-RAMP', REFERENCE_HEAT_FLUX=75.0000, REFERENCE_HEAT_FLUX_TIME_INTERVAL=1., REFERENCE_CONE_THICKNESS=0.00324587, THICKNESS(1:2)=0.00324587,0.01270000, /
&RAMP ID='IGNITION_RAMP-50-003', T=0.0, F=75.0000, /
&RAMP ID='IGNITION_RAMP-50-003', T=1.0, F=75.0000, /
&OBST ID='SAMPLE-50-003', SURF_ID='SAMPLE-50-003', XB=0.1000,0.2000,0.0000,0.1000,0.0000,0.0000,DEVC_ID='TIGN-50-003', /
&DEVC ID='WALL TEMPERATURE-50-003', INITIAL_STATE=.FALSE., IOR=3, OUTPUT=.FALSE., QUANTITY='WALL TEMPERATURE', SETPOINT=20.0, XYZ=0.1500,0.0500,0.0000, /
&CTRL ID='IGNITION-CTRL-50-003', FUNCTION_TYPE='ANY', INPUT_ID='WALL TEMPERATURE-50-003', /
&DEVC ID='TIGN-50-003', XYZ=0,0,0, SETPOINT=44.1061, QUANTITY='TIME', INITIAL_STATE=.FALSE., /
&DEVC ID='IGNITION_DEVC-50-003', CTRL_ID='IGNITION-CTRL-50-003', IOR=3, OUTPUT=.FALSE., QUANTITY='CONTROL', XYZ=0.1500,0.0500,0.0000, /
&DEVC ID='HRRPUA-50-003', IOR=3, QUANTITY='HRRPUA', SPEC_ID='PROPANE', XYZ=0.1500,0.0500,0.0000, /
&DEVC ID='IGNITION-TIME-50-003', NO_UPDATE_DEVC_ID='IGNITION_DEVC-50-003', OUTPUT=.FALSE., QUANTITY='TIME', XYZ=0.1500,0.0500,0.0000, /
&SURF ID='SAMPLE-75-003', EXTERNAL_FLUX=1., HEAT_TRANSFER_COEFFICIENT=15.0000, HEAT_TRANSFER_COEFFICIENT_BACK=10., HRRPUA=1., IGNITION_TEMPERATURE=20.0, MATL_ID(1:2,1)='SAMPLE','BACKING', RAMP_EF='IGNITION_RAMP-75-003', RAMP_Q='CONE-RAMP', REFERENCE_HEAT_FLUX=75.0000, REFERENCE_HEAT_FLUX_TIME_INTERVAL=1., REFERENCE_CONE_THICKNESS=0.00324587, THICKNESS(1:2)=0.00324587,0.01270000, /
&RAMP ID='IGNITION_RAMP-75-003', T=0.0, F=100.0000, /
&RAMP ID='IGNITION_RAMP-75-003', T=1.0, F=100.0000, /
&OBST ID='SAMPLE-75-003', SURF_ID='SAMPLE-75-003', XB=0.2000,0.3000,0.0000,0.1000,0.0000,0.0000,DEVC_ID='TIGN-75-003', /
&DEVC ID='WALL TEMPERATURE-75-003', INITIAL_STATE=.FALSE., IOR=3, OUTPUT=.FALSE., QUANTITY='WALL TEMPERATURE', SETPOINT=20.0, XYZ=0.2500,0.0500,0.0000, /
&CTRL ID='IGNITION-CTRL-75-003', FUNCTION_TYPE='ANY', INPUT_ID='WALL TEMPERATURE-75-003', /
&DEVC ID='TIGN-75-003', XYZ=0,0,0, SETPOINT=26.7763, QUANTITY='TIME', INITIAL_STATE=.FALSE., /
&DEVC ID='IGNITION_DEVC-75-003', CTRL_ID='IGNITION-CTRL-75-003', IOR=3, OUTPUT=.FALSE., QUANTITY='CONTROL', XYZ=0.2500,0.0500,0.0000, /
&DEVC ID='HRRPUA-75-003', IOR=3, QUANTITY='HRRPUA', SPEC_ID='PROPANE', XYZ=0.2500,0.0500,0.0000, /
&DEVC ID='IGNITION-TIME-75-003', NO_UPDATE_DEVC_ID='IGNITION_DEVC-75-003', OUTPUT=.FALSE., QUANTITY='TIME', XYZ=0.2500,0.0500,0.0000, /
