&HEAD CHID='FSRI_Pine_Siding', /
&TIME DT=1., T_END=20000.0 /
&DUMP DT_CTRL=1.0, DT_DEVC=1.0, DT_HRR=1.0, SIG_FIGS=4, SIG_FIGS_EXP=2, /
&MISC SOLID_PHASE_ONLY=.TRUE., TMPA=27., /
&MESH ID='MESH', IJK=3,3,3, XB=0.,0.3,0.,0.3,0.,0.3, /
&REAC ID='PROPANE', FUEL='PROPANE', /
&MATL ID='BACKING', CONDUCTIVITY=0.10, DENSITY=65., EMISSIVITY=0.9, SPECIFIC_HEAT=1.14, /
&MATL ID='SAMPLE', CONDUCTIVITY=0.1140, DENSITY=327.7, EMISSIVITY=1.0000, SPECIFIC_HEAT=1838.0000, /
&RAMP ID='CONE-RAMP', T=0.0000, F=38.8, /
&RAMP ID='CONE-RAMP', T=1.1978, F=60.8, /
&RAMP ID='CONE-RAMP', T=2.3956, F=87.1, /
&RAMP ID='CONE-RAMP', T=3.5934, F=116.8, /
&RAMP ID='CONE-RAMP', T=4.7912, F=148.9, /
&RAMP ID='CONE-RAMP', T=5.9889, F=181.0, /
&RAMP ID='CONE-RAMP', T=7.1867, F=211.3, /
&RAMP ID='CONE-RAMP', T=8.3845, F=237.6, /
&RAMP ID='CONE-RAMP', T=9.5823, F=258.0, /
&RAMP ID='CONE-RAMP', T=10.7801, F=272.1, /
&RAMP ID='CONE-RAMP', T=11.9779, F=280.5, /
&RAMP ID='CONE-RAMP', T=13.1757, F=283.7, /
&RAMP ID='CONE-RAMP', T=14.3735, F=282.7, /
&RAMP ID='CONE-RAMP', T=15.5713, F=278.5, /
&RAMP ID='CONE-RAMP', T=16.7690, F=272.1, /
&RAMP ID='CONE-RAMP', T=17.9668, F=264.0, /
&RAMP ID='CONE-RAMP', T=19.1646, F=255.6, /
&RAMP ID='CONE-RAMP', T=20.3624, F=246.7, /
&RAMP ID='CONE-RAMP', T=21.5602, F=238.1, /
&RAMP ID='CONE-RAMP', T=22.7580, F=230.2, /
! ... 793 like lines cut
&SURF ID='SAMPLE-25-018', EXTERNAL_FLUX=1., HEAT_TRANSFER_COEFFICIENT=15.0000, HEAT_TRANSFER_COEFFICIENT_BACK=10., HRRPUA=1., IGNITION_TEMPERATURE=20.0, MATL_ID(1:2,1)='SAMPLE','BACKING', RAMP_EF='IGNITION_RAMP-25-018', RAMP_Q='CONE-RAMP', REFERENCE_HEAT_FLUX=69.2188, REFERENCE_HEAT_FLUX_TIME_INTERVAL=1., REFERENCE_CONE_THICKNESS=0.01886063, THICKNESS(1:2)=0.01886063,0.01270000, /
&RAMP ID='IGNITION_RAMP-25-018', T=0.0, F=37.3170, /
&RAMP ID='IGNITION_RAMP-25-018', T=1.0, F=37.3170, /
&OBST ID='SAMPLE-25-018', SURF_ID='SAMPLE-25-018', XB=0.0000,0.1000,0.0000,0.1000,0.0000,0.0000,DEVC_ID='TIGN-25-018', /
&DEVC ID='WALL TEMPERATURE-25-018', INITIAL_STATE=.FALSE., IOR=3, OUTPUT=.FALSE., QUANTITY='WALL TEMPERATURE', SETPOINT=20.0, XYZ=0.0500,0.0500,0.0000, /
&CTRL ID='IGNITION-CTRL-25-018', FUNCTION_TYPE='ANY', INPUT_ID='WALL TEMPERATURE-25-018', /
&DEVC ID='TIGN-25-018', XYZ=0,0,0, SETPOINT=72.3923, QUANTITY='TIME', INITIAL_STATE=.FALSE., /
&DEVC ID='IGNITION_DEVC-25-018', CTRL_ID='IGNITION-CTRL-25-018', IOR=3, OUTPUT=.FALSE., QUANTITY='CONTROL', XYZ=0.0500,0.0500,0.0000, /
&DEVC ID='HRRPUA-25-018', IOR=3, QUANTITY='HRRPUA', SPEC_ID='PROPANE', XYZ=0.0500,0.0500,0.0000, /
&DEVC ID='IGNITION-TIME-25-018', NO_UPDATE_DEVC_ID='IGNITION_DEVC-25-018', OUTPUT=.FALSE., QUANTITY='TIME', XYZ=0.0500,0.0500,0.0000, /
&SURF ID='SAMPLE-50-018', EXTERNAL_FLUX=1., HEAT_TRANSFER_COEFFICIENT=15.0000, HEAT_TRANSFER_COEFFICIENT_BACK=10., HRRPUA=1., IGNITION_TEMPERATURE=20.0, MATL_ID(1:2,1)='SAMPLE','BACKING', RAMP_EF='IGNITION_RAMP-50-018', RAMP_Q='CONE-RAMP', REFERENCE_HEAT_FLUX=69.2188, REFERENCE_HEAT_FLUX_TIME_INTERVAL=1., REFERENCE_CONE_THICKNESS=0.01886063, THICKNESS(1:2)=0.01886063,0.01270000, /
&RAMP ID='IGNITION_RAMP-50-018', T=0.0, F=69.2188, /
&RAMP ID='IGNITION_RAMP-50-018', T=1.0, F=69.2188, /
&OBST ID='SAMPLE-50-018', SURF_ID='SAMPLE-50-018', XB=0.1000,0.2000,0.0000,0.1000,0.0000,0.0000,DEVC_ID='TIGN-50-018', /
&DEVC ID='WALL TEMPERATURE-50-018', INITIAL_STATE=.FALSE., IOR=3, OUTPUT=.FALSE., QUANTITY='WALL TEMPERATURE', SETPOINT=20.0, XYZ=0.1500,0.0500,0.0000, /
&CTRL ID='IGNITION-CTRL-50-018', FUNCTION_TYPE='ANY', INPUT_ID='WALL TEMPERATURE-50-018', /
&DEVC ID='TIGN-50-018', XYZ=0,0,0, SETPOINT=11.1456, QUANTITY='TIME', INITIAL_STATE=.FALSE., /
&DEVC ID='IGNITION_DEVC-50-018', CTRL_ID='IGNITION-CTRL-50-018', IOR=3, OUTPUT=.FALSE., QUANTITY='CONTROL', XYZ=0.1500,0.0500,0.0000, /
&DEVC ID='HRRPUA-50-018', IOR=3, QUANTITY='HRRPUA', SPEC_ID='PROPANE', XYZ=0.1500,0.0500,0.0000, /
&DEVC ID='IGNITION-TIME-50-018', NO_UPDATE_DEVC_ID='IGNITION_DEVC-50-018', OUTPUT=.FALSE., QUANTITY='TIME', XYZ=0.1500,0.0500,0.0000, /
&SURF ID='SAMPLE-75-018', EXTERNAL_FLUX=1., HEAT_TRANSFER_COEFFICIENT=15.0000, HEAT_TRANSFER_COEFFICIENT_BACK=10., HRRPUA=1., IGNITION_TEMPERATURE=20.0, MATL_ID(1:2,1)='SAMPLE','BACKING', RAMP_EF='IGNITION_RAMP-75-018', RAMP_Q='CONE-RAMP', REFERENCE_HEAT_FLUX=69.2188, REFERENCE_HEAT_FLUX_TIME_INTERVAL=1., REFERENCE_CONE_THICKNESS=0.01886063, THICKNESS(1:2)=0.01886063,0.01270000, /
&RAMP ID='IGNITION_RAMP-75-018', T=0.0, F=99.0824, /
&RAMP ID='IGNITION_RAMP-75-018', T=1.0, F=99.0824, /
&OBST ID='SAMPLE-75-018', SURF_ID='SAMPLE-75-018', XB=0.2000,0.3000,0.0000,0.1000,0.0000,0.0000,DEVC_ID='TIGN-75-018', /
&DEVC ID='WALL TEMPERATURE-75-018', INITIAL_STATE=.FALSE., IOR=3, OUTPUT=.FALSE., QUANTITY='WALL TEMPERATURE', SETPOINT=20.0, XYZ=0.2500,0.0500,0.0000, /
&CTRL ID='IGNITION-CTRL-75-018', FUNCTION_TYPE='ANY', INPUT_ID='WALL TEMPERATURE-75-018', /
&DEVC ID='TIGN-75-018', XYZ=0,0,0, SETPOINT=4.3940, QUANTITY='TIME', INITIAL_STATE=.FALSE., /
&DEVC ID='IGNITION_DEVC-75-018', CTRL_ID='IGNITION-CTRL-75-018', IOR=3, OUTPUT=.FALSE., QUANTITY='CONTROL', XYZ=0.2500,0.0500,0.0000, /
&DEVC ID='HRRPUA-75-018', IOR=3, QUANTITY='HRRPUA', SPEC_ID='PROPANE', XYZ=0.2500,0.0500,0.0000, /
&DEVC ID='IGNITION-TIME-75-018', NO_UPDATE_DEVC_ID='IGNITION_DEVC-75-018', OUTPUT=.FALSE., QUANTITY='TIME', XYZ=0.2500,0.0500,0.0000, /
