&HEAD CHID='FPL_plywood_douglas_fir_frt_12mm', /
&TIME DT=1., T_END=20000.0 /
&DUMP DT_CTRL=1.0, DT_DEVC=1.0, DT_HRR=1.0, SIG_FIGS=4, SIG_FIGS_EXP=2, /
&MISC SOLID_PHASE_ONLY=.TRUE., TMPA=27., /
&MESH ID='MESH', IJK=3,3,3, XB=0.,0.3,0.,0.3,0.,0.3, /
&REAC ID='PROPANE', FUEL='PROPANE', /
&MATL ID='BACKING', CONDUCTIVITY=0.10, DENSITY=65., EMISSIVITY=0.9, SPECIFIC_HEAT=1.14, /
&MATL ID='SAMPLE', CONDUCTIVITY=0.4000, DENSITY=604.1, EMISSIVITY=1.0000, SPECIFIC_HEAT=1.0000, /
&RAMP ID='CONE-RAMP', T=0.0000, F=1.2, /
&RAMP ID='CONE-RAMP', T=15.0000, F=15.9, /
&RAMP ID='CONE-RAMP', T=30.0000, F=31.9, /
&RAMP ID='CONE-RAMP', T=45.0000, F=37.4, /
&RAMP ID='CONE-RAMP', T=60.0000, F=27.9, /
&RAMP ID='CONE-RAMP', T=75.0000, F=30.7, /
&RAMP ID='CONE-RAMP', T=90.0000, F=46.7, /
&RAMP ID='CONE-RAMP', T=105.0000, F=61.9, /
&RAMP ID='CONE-RAMP', T=120.0000, F=68.2, /
&RAMP ID='CONE-RAMP', T=135.0000, F=67.0, /
&RAMP ID='CONE-RAMP', T=150.0000, F=63.3, /
&RAMP ID='CONE-RAMP', T=165.0000, F=60.0, /
&RAMP ID='CONE-RAMP', T=180.0000, F=56.3, /
&RAMP ID='CONE-RAMP', T=195.0000, F=52.6, /
&RAMP ID='CONE-RAMP', T=210.0000, F=50.0, /
&RAMP ID='CONE-RAMP', T=225.0000, F=48.7, /
&RAMP ID='CONE-RAMP', T=240.0000, F=47.9, /
&RAMP ID='CONE-RAMP', T=255.0000, F=47.0, /
&RAMP ID='CONE-RAMP', T=270.0000, F=47.4, /
&RAMP ID='CONE-RAMP', T=285.0000, F=49.9, /
! ... 30 like lines cut
&SURF ID='SAMPLE-20-012', EXTERNAL_FLUX=1., HEAT_TRANSFER_COEFFICIENT=15.0000, HEAT_TRANSFER_COEFFICIENT_BACK=10., HRRPUA=1., IGNITION_TEMPERATURE=20.0, MATL_ID(1:2,1)='SAMPLE','BACKING', RAMP_EF='IGNITION_RAMP-20-012', RAMP_Q='CONE-RAMP', REFERENCE_HEAT_FLUX=75.0000, REFERENCE_HEAT_FLUX_TIME_INTERVAL=1., REFERENCE_CONE_THICKNESS=0.01250000, THICKNESS(1:2)=0.01250000,0.01270000, /
&RAMP ID='IGNITION_RAMP-20-012', T=0.0, F=23.6727, /
&RAMP ID='IGNITION_RAMP-20-012', T=1.0, F=23.6727, /
&OBST ID='SAMPLE-20-012', SURF_ID='SAMPLE-20-012', XB=0.0000,0.1000,0.0000,0.1000,0.0000,0.0000,DEVC_ID='TIGN-20-012', /
&DEVC ID='WALL TEMPERATURE-20-012', INITIAL_STATE=.FALSE., IOR=3, OUTPUT=.FALSE., QUANTITY='WALL TEMPERATURE', SETPOINT=20.0, XYZ=0.0500,0.0500,0.0000, /
&CTRL ID='IGNITION-CTRL-20-012', FUNCTION_TYPE='ANY', INPUT_ID='WALL TEMPERATURE-20-012', /
&DEVC ID='TIGN-20-012', XYZ=0,0,0, SETPOINT=21.0000, QUANTITY='TIME', INITIAL_STATE=.FALSE., /
&DEVC ID='IGNITION_DEVC-20-012', CTRL_ID='IGNITION-CTRL-20-012', IOR=3, OUTPUT=.FALSE., QUANTITY='CONTROL', XYZ=0.0500,0.0500,0.0000, /
&DEVC ID='HRRPUA-20-012', IOR=3, QUANTITY='HRRPUA', SPEC_ID='PROPANE', XYZ=0.0500,0.0500,0.0000, /
&DEVC ID='IGNITION-TIME-20-012', NO_UPDATE_DEVC_ID='IGNITION_DEVC-20-012', OUTPUT=.FALSE., QUANTITY='TIME', XYZ=0.0500,0.0500,0.0000, /
&SURF ID='SAMPLE-35-012', EXTERNAL_FLUX=1., HEAT_TRANSFER_COEFFICIENT=15.0000, HEAT_TRANSFER_COEFFICIENT_BACK=10., HRRPUA=1., IGNITION_TEMPERATURE=20.0, MATL_ID(1:2,1)='SAMPLE','BACKING', RAMP_EF='IGNITION_RAMP-35-012', RAMP_Q='CONE-RAMP', REFERENCE_HEAT_FLUX=75.0000, REFERENCE_HEAT_FLUX_TIME_INTERVAL=1., REFERENCE_CONE_THICKNESS=0.01250000, THICKNESS(1:2)=0.01250000,0.01270000, /
&RAMP ID='IGNITION_RAMP-35-012', T=0.0, F=42.9761, /
&RAMP ID='IGNITION_RAMP-35-012', T=1.0, F=42.9761, /
&OBST ID='SAMPLE-35-012', SURF_ID='SAMPLE-35-012', XB=0.1000,0.2000,0.0000,0.1000,0.0000,0.0000,DEVC_ID='TIGN-35-012', /
&DEVC ID='WALL TEMPERATURE-35-012', INITIAL_STATE=.FALSE., IOR=3, OUTPUT=.FALSE., QUANTITY='WALL TEMPERATURE', SETPOINT=20.0, XYZ=0.1500,0.0500,0.0000, /
&CTRL ID='IGNITION-CTRL-35-012', FUNCTION_TYPE='ANY', INPUT_ID='WALL TEMPERATURE-35-012', /
&DEVC ID='TIGN-35-012', XYZ=0,0,0, SETPOINT=62.0000, QUANTITY='TIME', INITIAL_STATE=.FALSE., /
&DEVC ID='IGNITION_DEVC-35-012', CTRL_ID='IGNITION-CTRL-35-012', IOR=3, OUTPUT=.FALSE., QUANTITY='CONTROL', XYZ=0.1500,0.0500,0.0000, /
&DEVC ID='HRRPUA-35-012', IOR=3, QUANTITY='HRRPUA', SPEC_ID='PROPANE', XYZ=0.1500,0.0500,0.0000, /
&DEVC ID='IGNITION-TIME-35-012', NO_UPDATE_DEVC_ID='IGNITION_DEVC-35-012', OUTPUT=.FALSE., QUANTITY='TIME', XYZ=0.1500,0.0500,0.0000, /
&SURF ID='SAMPLE-50-012', EXTERNAL_FLUX=1., HEAT_TRANSFER_COEFFICIENT=15.0000, HEAT_TRANSFER_COEFFICIENT_BACK=10., HRRPUA=1., IGNITION_TEMPERATURE=20.0, MATL_ID(1:2,1)='SAMPLE','BACKING', RAMP_EF='IGNITION_RAMP-50-012', RAMP_Q='CONE-RAMP', REFERENCE_HEAT_FLUX=75.0000, REFERENCE_HEAT_FLUX_TIME_INTERVAL=1., REFERENCE_CONE_THICKNESS=0.01250000, THICKNESS(1:2)=0.01250000,0.01270000, /
&RAMP ID='IGNITION_RAMP-50-012', T=0.0, F=61.0305, /
&RAMP ID='IGNITION_RAMP-50-012', T=1.0, F=61.0305, /
&OBST ID='SAMPLE-50-012', SURF_ID='SAMPLE-50-012', XB=0.2000,0.3000,0.0000,0.1000,0.0000,0.0000,DEVC_ID='TIGN-50-012', /
&DEVC ID='WALL TEMPERATURE-50-012', INITIAL_STATE=.FALSE., IOR=3, OUTPUT=.FALSE., QUANTITY='WALL TEMPERATURE', SETPOINT=20.0, XYZ=0.2500,0.0500,0.0000, /
&CTRL ID='IGNITION-CTRL-50-012', FUNCTION_TYPE='ANY', INPUT_ID='WALL TEMPERATURE-50-012', /
&DEVC ID='TIGN-50-012', XYZ=0,0,0, SETPOINT=25.0000, QUANTITY='TIME', INITIAL_STATE=.FALSE., /
&DEVC ID='IGNITION_DEVC-50-012', CTRL_ID='IGNITION-CTRL-50-012', IOR=3, OUTPUT=.FALSE., QUANTITY='CONTROL', XYZ=0.2500,0.0500,0.0000, /
&DEVC ID='HRRPUA-50-012', IOR=3, QUANTITY='HRRPUA', SPEC_ID='PROPANE', XYZ=0.2500,0.0500,0.0000, /
&DEVC ID='IGNITION-TIME-50-012', NO_UPDATE_DEVC_ID='IGNITION_DEVC-50-012', OUTPUT=.FALSE., QUANTITY='TIME', XYZ=0.2500,0.0500,0.0000, /
&SURF ID='SAMPLE-65-012', EXTERNAL_FLUX=1., HEAT_TRANSFER_COEFFICIENT=15.0000, HEAT_TRANSFER_COEFFICIENT_BACK=10., HRRPUA=1., IGNITION_TEMPERATURE=20.0, MATL_ID(1:2,1)='SAMPLE','BACKING', RAMP_EF='IGNITION_RAMP-65-012', RAMP_Q='CONE-RAMP', REFERENCE_HEAT_FLUX=75.0000, REFERENCE_HEAT_FLUX_TIME_INTERVAL=1., REFERENCE_CONE_THICKNESS=0.01250000, THICKNESS(1:2)=0.01250000,0.01270000, /
&RAMP ID='IGNITION_RAMP-65-012', T=0.0, F=78.5027, /
&RAMP ID='IGNITION_RAMP-65-012', T=1.0, F=78.5027, /
&OBST ID='SAMPLE-65-012', SURF_ID='SAMPLE-65-012', XB=0.0000,0.1000,0.1000,0.2000,0.0000,0.0000,DEVC_ID='TIGN-65-012', /
&DEVC ID='WALL TEMPERATURE-65-012', INITIAL_STATE=.FALSE., IOR=3, OUTPUT=.FALSE., QUANTITY='WALL TEMPERATURE', SETPOINT=20.0, XYZ=0.0500,0.1500,0.0000, /
&CTRL ID='IGNITION-CTRL-65-012', FUNCTION_TYPE='ANY', INPUT_ID='WALL TEMPERATURE-65-012', /
&DEVC ID='TIGN-65-012', XYZ=0,0,0, SETPOINT=4.0000, QUANTITY='TIME', INITIAL_STATE=.FALSE., /
&DEVC ID='IGNITION_DEVC-65-012', CTRL_ID='IGNITION-CTRL-65-012', IOR=3, OUTPUT=.FALSE., QUANTITY='CONTROL', XYZ=0.0500,0.1500,0.0000, /
&DEVC ID='HRRPUA-65-012', IOR=3, QUANTITY='HRRPUA', SPEC_ID='PROPANE', XYZ=0.0500,0.1500,0.0000, /
&DEVC ID='IGNITION-TIME-65-012', NO_UPDATE_DEVC_ID='IGNITION_DEVC-65-012', OUTPUT=.FALSE., QUANTITY='TIME', XYZ=0.0500,0.1500,0.0000, /
