&HEAD CHID='JH_PVC_Blend', /
&TIME DT=1., T_END=20000.0 /
&DUMP DT_CTRL=1.0, DT_DEVC=1.0, DT_HRR=1.0, SIG_FIGS=4, SIG_FIGS_EXP=2, /
&MISC SOLID_PHASE_ONLY=.TRUE., TMPA=27., /
&MESH ID='MESH', IJK=3,3,3, XB=0.,0.3,0.,0.3,0.,0.3, /
&REAC ID='PROPANE', FUEL='PROPANE', /
&MATL ID='BACKING', CONDUCTIVITY=0.10, DENSITY=65., EMISSIVITY=0.9, SPECIFIC_HEAT=1.14, /
&MATL ID='SAMPLE', CONDUCTIVITY=0.2896, DENSITY=1314.0, EMISSIVITY=0.8804, SPECIFIC_HEAT=0.4243, /
&RAMP ID='CONE-RAMP', T=0.0000, F=4.9, /
&RAMP ID='CONE-RAMP', T=3.8000, F=23.3, /
&RAMP ID='CONE-RAMP', T=7.5000, F=53.7, /
&RAMP ID='CONE-RAMP', T=11.3000, F=86.8, /
&RAMP ID='CONE-RAMP', T=15.0000, F=109.8, /
&RAMP ID='CONE-RAMP', T=18.8000, F=121.7, /
&RAMP ID='CONE-RAMP', T=22.5000, F=122.0, /
&RAMP ID='CONE-RAMP', T=26.3000, F=115.2, /
&RAMP ID='CONE-RAMP', T=30.0000, F=106.0, /
&RAMP ID='CONE-RAMP', T=33.8000, F=99.7, /
&RAMP ID='CONE-RAMP', T=37.5000, F=98.8, /
&RAMP ID='CONE-RAMP', T=41.3000, F=100.6, /
&RAMP ID='CONE-RAMP', T=45.0000, F=104.6, /
&RAMP ID='CONE-RAMP', T=48.8000, F=109.3, /
&RAMP ID='CONE-RAMP', T=52.5000, F=113.0, /
&RAMP ID='CONE-RAMP', T=56.3000, F=115.3, /
&RAMP ID='CONE-RAMP', T=60.0000, F=115.9, /
&RAMP ID='CONE-RAMP', T=63.8000, F=116.4, /
&RAMP ID='CONE-RAMP', T=67.5000, F=118.4, /
&RAMP ID='CONE-RAMP', T=71.3000, F=123.3, /
! ... 263 like lines cut
&SURF ID='SAMPLE-25-003', EXTERNAL_FLUX=1., HEAT_TRANSFER_COEFFICIENT=15.0000, HEAT_TRANSFER_COEFFICIENT_BACK=10., HRRPUA=1., IGNITION_TEMPERATURE=20.0, MATL_ID(1:2,1)='SAMPLE','BACKING', RAMP_EF='IGNITION_RAMP-25-003', RAMP_Q='CONE-RAMP', REFERENCE_HEAT_FLUX=65.7595, REFERENCE_HEAT_FLUX_TIME_INTERVAL=1., REFERENCE_CONE_THICKNESS=0.00327000, THICKNESS(1:2)=0.00327000,0.01270000, /
&RAMP ID='IGNITION_RAMP-25-003', T=0.0, F=34.3360, /
&RAMP ID='IGNITION_RAMP-25-003', T=1.0, F=34.3360, /
&OBST ID='SAMPLE-25-003', SURF_ID='SAMPLE-25-003', XB=0.0000,0.1000,0.0000,0.1000,0.0000,0.0000,DEVC_ID='TIGN-25-003', /
&DEVC ID='WALL TEMPERATURE-25-003', INITIAL_STATE=.FALSE., IOR=3, OUTPUT=.FALSE., QUANTITY='WALL TEMPERATURE', SETPOINT=20.0, XYZ=0.0500,0.0500,0.0000, /
&CTRL ID='IGNITION-CTRL-25-003', FUNCTION_TYPE='ANY', INPUT_ID='WALL TEMPERATURE-25-003', /
&DEVC ID='TIGN-25-003', XYZ=0,0,0, SETPOINT=356.3000, QUANTITY='TIME', INITIAL_STATE=.FALSE., /
&DEVC ID='IGNITION_DEVC-25-003', CTRL_ID='IGNITION-CTRL-25-003', IOR=3, OUTPUT=.FALSE., QUANTITY='CONTROL', XYZ=0.0500,0.0500,0.0000, /
&DEVC ID='HRRPUA-25-003', IOR=3, QUANTITY='HRRPUA', SPEC_ID='PROPANE', XYZ=0.0500,0.0500,0.0000, /
&DEVC ID='IGNITION-TIME-25-003', NO_UPDATE_DEVC_ID='IGNITION_DEVC-25-003', OUTPUT=.FALSE., QUANTITY='TIME', XYZ=0.0500,0.0500,0.0000, /
&SURF ID='SAMPLE-50-003', EXTERNAL_FLUX=1., HEAT_TRANSFER_COEFFICIENT=15.0000, HEAT_TRANSFER_COEFFICIENT_BACK=10., HRRPUA=1., IGNITION_TEMPERATURE=20.0, MATL_ID(1:2,1)='SAMPLE','BACKING', RAMP_EF='IGNITION_RAMP-50-003', RAMP_Q='CONE-RAMP', REFERENCE_HEAT_FLUX=65.7595, REFERENCE_HEAT_FLUX_TIME_INTERVAL=1., REFERENCE_CONE_THICKNESS=0.00327000, THICKNESS(1:2)=0.00327000,0.01270000, /
&RAMP ID='IGNITION_RAMP-50-003', T=0.0, F=65.7595, /
&RAMP ID='IGNITION_RAMP-50-003', T=1.0, F=65.7595, /
&OBST ID='SAMPLE-50-003', SURF_ID='SAMPLE-50-003', XB=0.1000,0.2000,0.0000,0.1000,0.0000,0.0000,DEVC_ID='TIGN-50-003', /
&DEVC ID='WALL TEMPERATURE-50-003', INITIAL_STATE=.FALSE., IOR=3, OUTPUT=.FALSE., QUANTITY='WALL TEMPERATURE', SETPOINT=20.0, XYZ=0.1500,0.0500,0.0000, /
&CTRL ID='IGNITION-CTRL-50-003', FUNCTION_TYPE='ANY', INPUT_ID='WALL TEMPERATURE-50-003', /
&DEVC ID='TIGN-50-003', XYZ=0,0,0, SETPOINT=45.0000, QUANTITY='TIME', INITIAL_STATE=.FALSE., /
&DEVC ID='IGNITION_DEVC-50-003', CTRL_ID='IGNITION-CTRL-50-003', IOR=3, OUTPUT=.FALSE., QUANTITY='CONTROL', XYZ=0.1500,0.0500,0.0000, /
&DEVC ID='HRRPUA-50-003', IOR=3, QUANTITY='HRRPUA', SPEC_ID='PROPANE', XYZ=0.1500,0.0500,0.0000, /
&DEVC ID='IGNITION-TIME-50-003', NO_UPDATE_DEVC_ID='IGNITION_DEVC-50-003', OUTPUT=.FALSE., QUANTITY='TIME', XYZ=0.1500,0.0500,0.0000, /
&SURF ID='SAMPLE-75-003', EXTERNAL_FLUX=1., HEAT_TRANSFER_COEFFICIENT=15.0000, HEAT_TRANSFER_COEFFICIENT_BACK=10., HRRPUA=1., IGNITION_TEMPERATURE=20.0, MATL_ID(1:2,1)='SAMPLE','BACKING', RAMP_EF='IGNITION_RAMP-75-003', RAMP_Q='CONE-RAMP', REFERENCE_HEAT_FLUX=65.7595, REFERENCE_HEAT_FLUX_TIME_INTERVAL=1., REFERENCE_CONE_THICKNESS=0.00327000, THICKNESS(1:2)=0.00327000,0.01270000, /
&RAMP ID='IGNITION_RAMP-75-003', T=0.0, F=95.2420, /
&RAMP ID='IGNITION_RAMP-75-003', T=1.0, F=95.2420, /
&OBST ID='SAMPLE-75-003', SURF_ID='SAMPLE-75-003', XB=0.2000,0.3000,0.0000,0.1000,0.0000,0.0000,DEVC_ID='TIGN-75-003', /
&DEVC ID='WALL TEMPERATURE-75-003', INITIAL_STATE=.FALSE., IOR=3, OUTPUT=.FALSE., QUANTITY='WALL TEMPERATURE', SETPOINT=20.0, XYZ=0.2500,0.0500,0.0000, /
&CTRL ID='IGNITION-CTRL-75-003', FUNCTION_TYPE='ANY', INPUT_ID='WALL TEMPERATURE-75-003', /
&DEVC ID='TIGN-75-003', XYZ=0,0,0, SETPOINT=18.8000, QUANTITY='TIME', INITIAL_STATE=.FALSE., /
&DEVC ID='IGNITION_DEVC-75-003', CTRL_ID='IGNITION-CTRL-75-003', IOR=3, OUTPUT=.FALSE., QUANTITY='CONTROL', XYZ=0.2500,0.0500,0.0000, /
&DEVC ID='HRRPUA-75-003', IOR=3, QUANTITY='HRRPUA', SPEC_ID='PROPANE', XYZ=0.2500,0.0500,0.0000, /
&DEVC ID='IGNITION-TIME-75-003', NO_UPDATE_DEVC_ID='IGNITION_DEVC-75-003', OUTPUT=.FALSE., QUANTITY='TIME', XYZ=0.2500,0.0500,0.0000, /
