&HEAD CHID='JH_CPS_Plywood_Facesheet', /
&TIME DT=1., T_END=20000.0 /
&DUMP DT_CTRL=1.0, DT_DEVC=1.0, DT_HRR=1.0, SIG_FIGS=4, SIG_FIGS_EXP=2, /
&MISC SOLID_PHASE_ONLY=.TRUE., TMPA=27., /
&MESH ID='MESH', IJK=3,3,3, XB=0.,0.3,0.,0.3,0.,0.3, /
&REAC ID='PROPANE', FUEL='PROPANE', /
&MATL ID='BACKING', CONDUCTIVITY=0.10, DENSITY=65., EMISSIVITY=0.9, SPECIFIC_HEAT=1.14, /
&MATL ID='SAMPLE', CONDUCTIVITY=0.3918, DENSITY=630.0, EMISSIVITY=0.7000, SPECIFIC_HEAT=0.5129, /
&RAMP ID='CONE-RAMP', T=0.0000, F=18.0, /
&RAMP ID='CONE-RAMP', T=1.0000, F=21.6, /
&RAMP ID='CONE-RAMP', T=2.0000, F=25.8, /
&RAMP ID='CONE-RAMP', T=3.0000, F=29.8, /
&RAMP ID='CONE-RAMP', T=4.0000, F=34.0, /
&RAMP ID='CONE-RAMP', T=5.0000, F=38.5, /
&RAMP ID='CONE-RAMP', T=6.0000, F=43.3, /
&RAMP ID='CONE-RAMP', T=7.0000, F=48.3, /
&RAMP ID='CONE-RAMP', T=8.0000, F=53.3, /
&RAMP ID='CONE-RAMP', T=9.0000, F=58.4, /
&RAMP ID='CONE-RAMP', T=10.0000, F=63.2, /
&RAMP ID='CONE-RAMP', T=11.0000, F=67.0, /
&RAMP ID='CONE-RAMP', T=12.0000, F=70.9, /
&RAMP ID='CONE-RAMP', T=13.0000, F=74.2, /
&RAMP ID='CONE-RAMP', T=14.0000, F=77.4, /
&RAMP ID='CONE-RAMP', T=15.0000, F=79.9, /
&RAMP ID='CONE-RAMP', T=16.0000, F=81.4, /
&RAMP ID='CONE-RAMP', T=17.0000, F=82.5, /
&RAMP ID='CONE-RAMP', T=18.0000, F=83.2, /
&RAMP ID='CONE-RAMP', T=19.0000, F=83.3, /
! ... 1108 like lines cut
&SURF ID='SAMPLE-35-012', EXTERNAL_FLUX=1., HEAT_TRANSFER_COEFFICIENT=0.0000, HEAT_TRANSFER_COEFFICIENT_BACK=10., HRRPUA=1., IGNITION_TEMPERATURE=20.0, MATL_ID(1:2,1)='SAMPLE','BACKING', RAMP_EF='IGNITION_RAMP-35-012', RAMP_Q='CONE-RAMP', REFERENCE_HEAT_FLUX=75.0000, REFERENCE_HEAT_FLUX_TIME_INTERVAL=1., REFERENCE_CONE_THICKNESS=0.01270000, THICKNESS(1:2)=0.01270000,0.01270000, /
&RAMP ID='IGNITION_RAMP-35-012', T=0.0, F=60.0000, /
&RAMP ID='IGNITION_RAMP-35-012', T=1.0, F=60.0000, /
&OBST ID='SAMPLE-35-012', SURF_ID='SAMPLE-35-012', XB=0.0000,0.1000,0.0000,0.1000,0.0000,0.0000,DEVC_ID='TIGN-35-012', /
&DEVC ID='WALL TEMPERATURE-35-012', INITIAL_STATE=.FALSE., IOR=3, OUTPUT=.FALSE., QUANTITY='WALL TEMPERATURE', SETPOINT=20.0, XYZ=0.0500,0.0500,0.0000, /
&CTRL ID='IGNITION-CTRL-35-012', FUNCTION_TYPE='ANY', INPUT_ID='WALL TEMPERATURE-35-012', /
&DEVC ID='TIGN-35-012', XYZ=0,0,0, SETPOINT=348.0000, QUANTITY='TIME', INITIAL_STATE=.FALSE., /
&DEVC ID='IGNITION_DEVC-35-012', CTRL_ID='IGNITION-CTRL-35-012', IOR=3, OUTPUT=.FALSE., QUANTITY='CONTROL', XYZ=0.0500,0.0500,0.0000, /
&DEVC ID='HRRPUA-35-012', IOR=3, QUANTITY='HRRPUA', SPEC_ID='PROPANE', XYZ=0.0500,0.0500,0.0000, /
&DEVC ID='IGNITION-TIME-35-012', NO_UPDATE_DEVC_ID='IGNITION_DEVC-35-012', OUTPUT=.FALSE., QUANTITY='TIME', XYZ=0.0500,0.0500,0.0000, /
&SURF ID='SAMPLE-50-012', EXTERNAL_FLUX=1., HEAT_TRANSFER_COEFFICIENT=0.0000, HEAT_TRANSFER_COEFFICIENT_BACK=10., HRRPUA=1., IGNITION_TEMPERATURE=20.0, MATL_ID(1:2,1)='SAMPLE','BACKING', RAMP_EF='IGNITION_RAMP-50-012', RAMP_Q='CONE-RAMP', REFERENCE_HEAT_FLUX=75.0000, REFERENCE_HEAT_FLUX_TIME_INTERVAL=1., REFERENCE_CONE_THICKNESS=0.01270000, THICKNESS(1:2)=0.01270000,0.01270000, /
&RAMP ID='IGNITION_RAMP-50-012', T=0.0, F=75.0000, /
&RAMP ID='IGNITION_RAMP-50-012', T=1.0, F=75.0000, /
&OBST ID='SAMPLE-50-012', SURF_ID='SAMPLE-50-012', XB=0.1000,0.2000,0.0000,0.1000,0.0000,0.0000,DEVC_ID='TIGN-50-012', /
&DEVC ID='WALL TEMPERATURE-50-012', INITIAL_STATE=.FALSE., IOR=3, OUTPUT=.FALSE., QUANTITY='WALL TEMPERATURE', SETPOINT=20.0, XYZ=0.1500,0.0500,0.0000, /
&CTRL ID='IGNITION-CTRL-50-012', FUNCTION_TYPE='ANY', INPUT_ID='WALL TEMPERATURE-50-012', /
&DEVC ID='TIGN-50-012', XYZ=0,0,0, SETPOINT=73.0000, QUANTITY='TIME', INITIAL_STATE=.FALSE., /
&DEVC ID='IGNITION_DEVC-50-012', CTRL_ID='IGNITION-CTRL-50-012', IOR=3, OUTPUT=.FALSE., QUANTITY='CONTROL', XYZ=0.1500,0.0500,0.0000, /
&DEVC ID='HRRPUA-50-012', IOR=3, QUANTITY='HRRPUA', SPEC_ID='PROPANE', XYZ=0.1500,0.0500,0.0000, /
&DEVC ID='IGNITION-TIME-50-012', NO_UPDATE_DEVC_ID='IGNITION_DEVC-50-012', OUTPUT=.FALSE., QUANTITY='TIME', XYZ=0.1500,0.0500,0.0000, /
&SURF ID='SAMPLE-75-012', EXTERNAL_FLUX=1., HEAT_TRANSFER_COEFFICIENT=0.0000, HEAT_TRANSFER_COEFFICIENT_BACK=10., HRRPUA=1., IGNITION_TEMPERATURE=20.0, MATL_ID(1:2,1)='SAMPLE','BACKING', RAMP_EF='IGNITION_RAMP-75-012', RAMP_Q='CONE-RAMP', REFERENCE_HEAT_FLUX=75.0000, REFERENCE_HEAT_FLUX_TIME_INTERVAL=1., REFERENCE_CONE_THICKNESS=0.01270000, THICKNESS(1:2)=0.01270000,0.01270000, /
&RAMP ID='IGNITION_RAMP-75-012', T=0.0, F=100.0000, /
&RAMP ID='IGNITION_RAMP-75-012', T=1.0, F=100.0000, /
&OBST ID='SAMPLE-75-012', SURF_ID='SAMPLE-75-012', XB=0.2000,0.3000,0.0000,0.1000,0.0000,0.0000,DEVC_ID='TIGN-75-012', /
&DEVC ID='WALL TEMPERATURE-75-012', INITIAL_STATE=.FALSE., IOR=3, OUTPUT=.FALSE., QUANTITY='WALL TEMPERATURE', SETPOINT=20.0, XYZ=0.2500,0.0500,0.0000, /
&CTRL ID='IGNITION-CTRL-75-012', FUNCTION_TYPE='ANY', INPUT_ID='WALL TEMPERATURE-75-012', /
&DEVC ID='TIGN-75-012', XYZ=0,0,0, SETPOINT=26.0000, QUANTITY='TIME', INITIAL_STATE=.FALSE., /
&DEVC ID='IGNITION_DEVC-75-012', CTRL_ID='IGNITION-CTRL-75-012', IOR=3, OUTPUT=.FALSE., QUANTITY='CONTROL', XYZ=0.2500,0.0500,0.0000, /
&DEVC ID='HRRPUA-75-012', IOR=3, QUANTITY='HRRPUA', SPEC_ID='PROPANE', XYZ=0.2500,0.0500,0.0000, /
&DEVC ID='IGNITION-TIME-75-012', NO_UPDATE_DEVC_ID='IGNITION_DEVC-75-012', OUTPUT=.FALSE., QUANTITY='TIME', XYZ=0.2500,0.0500,0.0000, /
