&HEAD CHID='JH_White Spruce', /
&TIME DT=1., T_END=5580.0 /
&DUMP DT_CTRL=1.0, DT_DEVC=1.0, DT_HRR=1.0, SIG_FIGS=4, SIG_FIGS_EXP=2, /
&MISC SOLID_PHASE_ONLY=.TRUE., TMPA=27., /
&MESH ID='MESH', IJK=3,3,3, XB=0.,0.3,0.,0.3,0.,0.3, /
&REAC ID='PROPANE', FUEL='PROPANE', /
&MATL ID='BACKING', CONDUCTIVITY=0.10, DENSITY=65., EMISSIVITY=0.9, SPECIFIC_HEAT=1.14, /
&MATL ID='SAMPLE', CONDUCTIVITY=0.2428, DENSITY=430.0, EMISSIVITY=0.9009, SPECIFIC_HEAT=1.1040, /
&RAMP ID='CONE-RAMP', T=0.0000, F=0.0, /
&RAMP ID='CONE-RAMP', T=10.0000, F=90.4, /
&RAMP ID='CONE-RAMP', T=20.0000, F=180.8, /
&RAMP ID='CONE-RAMP', T=30.0000, F=174.7, /
&RAMP ID='CONE-RAMP', T=40.0000, F=157.6, /
&RAMP ID='CONE-RAMP', T=50.0000, F=142.9, /
&RAMP ID='CONE-RAMP', T=60.0000, F=133.8, /
&RAMP ID='CONE-RAMP', T=70.0000, F=122.7, /
&RAMP ID='CONE-RAMP', T=80.0000, F=114.3, /
&RAMP ID='CONE-RAMP', T=90.0000, F=107.5, /
&RAMP ID='CONE-RAMP', T=100.0000, F=103.3, /
&RAMP ID='CONE-RAMP', T=110.0000, F=101.5, /
&RAMP ID='CONE-RAMP', T=120.0000, F=97.2, /
&RAMP ID='CONE-RAMP', T=130.0000, F=92.3, /
&RAMP ID='CONE-RAMP', T=140.0000, F=88.8, /
&RAMP ID='CONE-RAMP', T=150.0000, F=88.7, /
&RAMP ID='CONE-RAMP', T=160.0000, F=87.6, /
&RAMP ID='CONE-RAMP', T=170.0000, F=86.2, /
&RAMP ID='CONE-RAMP', T=180.0000, F=83.1, /
&RAMP ID='CONE-RAMP', T=190.0000, F=81.9, /
! ... 249 like lines cut
&SURF ID='SAMPLE-25-037', EXTERNAL_FLUX=1., HEAT_TRANSFER_COEFFICIENT=15.0000, HEAT_TRANSFER_COEFFICIENT_BACK=10., HRRPUA=1., IGNITION_TEMPERATURE=20.0, MATL_ID(1:2,1)='SAMPLE','BACKING', RAMP_EF='IGNITION_RAMP-25-037', RAMP_Q='CONE-RAMP', REFERENCE_HEAT_FLUX=62.9326, REFERENCE_HEAT_FLUX_TIME_INTERVAL=1., REFERENCE_CONE_THICKNESS=0.03722000, THICKNESS(1:2)=0.03722000,0.01270000, /
&RAMP ID='IGNITION_RAMP-25-037', T=0.0, F=31.9348, /
&RAMP ID='IGNITION_RAMP-25-037', T=1.0, F=31.9348, /
&OBST ID='SAMPLE-25-037', SURF_ID='SAMPLE-25-037', XB=0.0000,0.1000,0.0000,0.1000,0.0000,0.0000,DEVC_ID='TIGN-25-037', /
&DEVC ID='WALL TEMPERATURE-25-037', INITIAL_STATE=.FALSE., IOR=3, OUTPUT=.FALSE., QUANTITY='WALL TEMPERATURE', SETPOINT=20.0, XYZ=0.0500,0.0500,0.0000, /
&CTRL ID='IGNITION-CTRL-25-037', FUNCTION_TYPE='ANY', INPUT_ID='WALL TEMPERATURE-25-037', /
&DEVC ID='TIGN-25-037', XYZ=0,0,0, SETPOINT=100.0000, QUANTITY='TIME', INITIAL_STATE=.FALSE., /
&DEVC ID='IGNITION_DEVC-25-037', CTRL_ID='IGNITION-CTRL-25-037', IOR=3, OUTPUT=.FALSE., QUANTITY='CONTROL', XYZ=0.0500,0.0500,0.0000, /
&DEVC ID='HRRPUA-25-037', IOR=3, QUANTITY='HRRPUA', SPEC_ID='PROPANE', XYZ=0.0500,0.0500,0.0000, /
&DEVC ID='IGNITION-TIME-25-037', NO_UPDATE_DEVC_ID='IGNITION_DEVC-25-037', OUTPUT=.FALSE., QUANTITY='TIME', XYZ=0.0500,0.0500,0.0000, /
&SURF ID='SAMPLE-50-037', EXTERNAL_FLUX=1., HEAT_TRANSFER_COEFFICIENT=15.0000, HEAT_TRANSFER_COEFFICIENT_BACK=10., HRRPUA=1., IGNITION_TEMPERATURE=20.0, MATL_ID(1:2,1)='SAMPLE','BACKING', RAMP_EF='IGNITION_RAMP-50-037', RAMP_Q='CONE-RAMP', REFERENCE_HEAT_FLUX=62.9326, REFERENCE_HEAT_FLUX_TIME_INTERVAL=1., REFERENCE_CONE_THICKNESS=0.03722000, THICKNESS(1:2)=0.03722000,0.01270000, /
&RAMP ID='IGNITION_RAMP-50-037', T=0.0, F=62.9326, /
&RAMP ID='IGNITION_RAMP-50-037', T=1.0, F=62.9326, /
&OBST ID='SAMPLE-50-037', SURF_ID='SAMPLE-50-037', XB=0.1000,0.2000,0.0000,0.1000,0.0000,0.0000,DEVC_ID='TIGN-50-037', /
&DEVC ID='WALL TEMPERATURE-50-037', INITIAL_STATE=.FALSE., IOR=3, OUTPUT=.FALSE., QUANTITY='WALL TEMPERATURE', SETPOINT=20.0, XYZ=0.1500,0.0500,0.0000, /
&CTRL ID='IGNITION-CTRL-50-037', FUNCTION_TYPE='ANY', INPUT_ID='WALL TEMPERATURE-50-037', /
&DEVC ID='TIGN-50-037', XYZ=0,0,0, SETPOINT=10.0000, QUANTITY='TIME', INITIAL_STATE=.FALSE., /
&DEVC ID='IGNITION_DEVC-50-037', CTRL_ID='IGNITION-CTRL-50-037', IOR=3, OUTPUT=.FALSE., QUANTITY='CONTROL', XYZ=0.1500,0.0500,0.0000, /
&DEVC ID='HRRPUA-50-037', IOR=3, QUANTITY='HRRPUA', SPEC_ID='PROPANE', XYZ=0.1500,0.0500,0.0000, /
&DEVC ID='IGNITION-TIME-50-037', NO_UPDATE_DEVC_ID='IGNITION_DEVC-50-037', OUTPUT=.FALSE., QUANTITY='TIME', XYZ=0.1500,0.0500,0.0000, /
&SURF ID='SAMPLE-70-037', EXTERNAL_FLUX=1., HEAT_TRANSFER_COEFFICIENT=15.0000, HEAT_TRANSFER_COEFFICIENT_BACK=10., HRRPUA=1., IGNITION_TEMPERATURE=20.0, MATL_ID(1:2,1)='SAMPLE','BACKING', RAMP_EF='IGNITION_RAMP-70-037', RAMP_Q='CONE-RAMP', REFERENCE_HEAT_FLUX=62.9326, REFERENCE_HEAT_FLUX_TIME_INTERVAL=1., REFERENCE_CONE_THICKNESS=0.03722000, THICKNESS(1:2)=0.03722000,0.01270000, /
&RAMP ID='IGNITION_RAMP-70-037', T=0.0, F=86.3345, /
&RAMP ID='IGNITION_RAMP-70-037', T=1.0, F=86.3345, /
&OBST ID='SAMPLE-70-037', SURF_ID='SAMPLE-70-037', XB=0.2000,0.3000,0.0000,0.1000,0.0000,0.0000,DEVC_ID='TIGN-70-037', /
&DEVC ID='WALL TEMPERATURE-70-037', INITIAL_STATE=.FALSE., IOR=3, OUTPUT=.FALSE., QUANTITY='WALL TEMPERATURE', SETPOINT=20.0, XYZ=0.2500,0.0500,0.0000, /
&CTRL ID='IGNITION-CTRL-70-037', FUNCTION_TYPE='ANY', INPUT_ID='WALL TEMPERATURE-70-037', /
&DEVC ID='TIGN-70-037', XYZ=0,0,0, SETPOINT=0.0000, QUANTITY='TIME', INITIAL_STATE=.FALSE., /
&DEVC ID='IGNITION_DEVC-70-037', CTRL_ID='IGNITION-CTRL-70-037', IOR=3, OUTPUT=.FALSE., QUANTITY='CONTROL', XYZ=0.2500,0.0500,0.0000, /
&DEVC ID='HRRPUA-70-037', IOR=3, QUANTITY='HRRPUA', SPEC_ID='PROPANE', XYZ=0.2500,0.0500,0.0000, /
&DEVC ID='IGNITION-TIME-70-037', NO_UPDATE_DEVC_ID='IGNITION_DEVC-70-037', OUTPUT=.FALSE., QUANTITY='TIME', XYZ=0.2500,0.0500,0.0000, /
