&HEAD CHID='FSRI_Basswood_Panel', /
&TIME DT=1., T_END=20000.0 /
&DUMP DT_CTRL=1.0, DT_DEVC=1.0, DT_HRR=1.0, SIG_FIGS=4, SIG_FIGS_EXP=2, /
&MISC SOLID_PHASE_ONLY=.TRUE., TMPA=27., /
&MESH ID='MESH', IJK=3,3,3, XB=0.,0.3,0.,0.3,0.,0.3, /
&REAC ID='PROPANE', FUEL='PROPANE', /
&MATL ID='BACKING', CONDUCTIVITY=0.10, DENSITY=65., EMISSIVITY=0.9, SPECIFIC_HEAT=1.14, /
&MATL ID='SAMPLE', CONDUCTIVITY=0.1010, DENSITY=404.0, EMISSIVITY=1.0000, SPECIFIC_HEAT=1553.0000, /
&RAMP ID='CONE-RAMP', T=0.0000, F=39.8, /
&RAMP ID='CONE-RAMP', T=0.9694, F=53.6, /
&RAMP ID='CONE-RAMP', T=1.9388, F=69.5, /
&RAMP ID='CONE-RAMP', T=2.9082, F=87.2, /
&RAMP ID='CONE-RAMP', T=3.8776, F=105.9, /
&RAMP ID='CONE-RAMP', T=4.8469, F=125.2, /
&RAMP ID='CONE-RAMP', T=5.8163, F=144.2, /
&RAMP ID='CONE-RAMP', T=6.7857, F=162.2, /
&RAMP ID='CONE-RAMP', T=7.7551, F=178.9, /
&RAMP ID='CONE-RAMP', T=8.7245, F=194.1, /
&RAMP ID='CONE-RAMP', T=9.6939, F=207.4, /
&RAMP ID='CONE-RAMP', T=10.6633, F=218.8, /
&RAMP ID='CONE-RAMP', T=11.6327, F=228.3, /
&RAMP ID='CONE-RAMP', T=12.6020, F=236.1, /
&RAMP ID='CONE-RAMP', T=13.5714, F=242.5, /
&RAMP ID='CONE-RAMP', T=14.5408, F=247.9, /
&RAMP ID='CONE-RAMP', T=15.5102, F=252.2, /
&RAMP ID='CONE-RAMP', T=16.4796, F=256.0, /
&RAMP ID='CONE-RAMP', T=17.4490, F=259.2, /
&RAMP ID='CONE-RAMP', T=18.4184, F=261.4, /
! ... 856 like lines cut
&SURF ID='SAMPLE-25-019', EXTERNAL_FLUX=1., HEAT_TRANSFER_COEFFICIENT=15.0000, HEAT_TRANSFER_COEFFICIENT_BACK=10., HRRPUA=1., IGNITION_TEMPERATURE=20.0, MATL_ID(1:2,1)='SAMPLE','BACKING', RAMP_EF='IGNITION_RAMP-25-019', RAMP_Q='CONE-RAMP', REFERENCE_HEAT_FLUX=75.0000, REFERENCE_HEAT_FLUX_TIME_INTERVAL=1., REFERENCE_CONE_THICKNESS=0.01983168, THICKNESS(1:2)=0.01983168,0.01270000, /
&RAMP ID='IGNITION_RAMP-25-019', T=0.0, F=50.0000, /
&RAMP ID='IGNITION_RAMP-25-019', T=1.0, F=50.0000, /
&OBST ID='SAMPLE-25-019', SURF_ID='SAMPLE-25-019', XB=0.0000,0.1000,0.0000,0.1000,0.0000,0.0000,DEVC_ID='TIGN-25-019', /
&DEVC ID='WALL TEMPERATURE-25-019', INITIAL_STATE=.FALSE., IOR=3, OUTPUT=.FALSE., QUANTITY='WALL TEMPERATURE', SETPOINT=20.0, XYZ=0.0500,0.0500,0.0000, /
&CTRL ID='IGNITION-CTRL-25-019', FUNCTION_TYPE='ANY', INPUT_ID='WALL TEMPERATURE-25-019', /
&DEVC ID='TIGN-25-019', XYZ=0,0,0, SETPOINT=98.5326, QUANTITY='TIME', INITIAL_STATE=.FALSE., /
&DEVC ID='IGNITION_DEVC-25-019', CTRL_ID='IGNITION-CTRL-25-019', IOR=3, OUTPUT=.FALSE., QUANTITY='CONTROL', XYZ=0.0500,0.0500,0.0000, /
&DEVC ID='HRRPUA-25-019', IOR=3, QUANTITY='HRRPUA', SPEC_ID='PROPANE', XYZ=0.0500,0.0500,0.0000, /
&DEVC ID='IGNITION-TIME-25-019', NO_UPDATE_DEVC_ID='IGNITION_DEVC-25-019', OUTPUT=.FALSE., QUANTITY='TIME', XYZ=0.0500,0.0500,0.0000, /
&SURF ID='SAMPLE-50-019', EXTERNAL_FLUX=1., HEAT_TRANSFER_COEFFICIENT=15.0000, HEAT_TRANSFER_COEFFICIENT_BACK=10., HRRPUA=1., IGNITION_TEMPERATURE=20.0, MATL_ID(1:2,1)='SAMPLE','BACKING', RAMP_EF='IGNITION_RAMP-50-019', RAMP_Q='CONE-RAMP', REFERENCE_HEAT_FLUX=75.0000, REFERENCE_HEAT_FLUX_TIME_INTERVAL=1., REFERENCE_CONE_THICKNESS=0.01983168, THICKNESS(1:2)=0.01983168,0.01270000, /
&RAMP ID='IGNITION_RAMP-50-019', T=0.0, F=75.0000, /
&RAMP ID='IGNITION_RAMP-50-019', T=1.0, F=75.0000, /
&OBST ID='SAMPLE-50-019', SURF_ID='SAMPLE-50-019', XB=0.1000,0.2000,0.0000,0.1000,0.0000,0.0000,DEVC_ID='TIGN-50-019', /
&DEVC ID='WALL TEMPERATURE-50-019', INITIAL_STATE=.FALSE., IOR=3, OUTPUT=.FALSE., QUANTITY='WALL TEMPERATURE', SETPOINT=20.0, XYZ=0.1500,0.0500,0.0000, /
&CTRL ID='IGNITION-CTRL-50-019', FUNCTION_TYPE='ANY', INPUT_ID='WALL TEMPERATURE-50-019', /
&DEVC ID='TIGN-50-019', XYZ=0,0,0, SETPOINT=26.0357, QUANTITY='TIME', INITIAL_STATE=.FALSE., /
&DEVC ID='IGNITION_DEVC-50-019', CTRL_ID='IGNITION-CTRL-50-019', IOR=3, OUTPUT=.FALSE., QUANTITY='CONTROL', XYZ=0.1500,0.0500,0.0000, /
&DEVC ID='HRRPUA-50-019', IOR=3, QUANTITY='HRRPUA', SPEC_ID='PROPANE', XYZ=0.1500,0.0500,0.0000, /
&DEVC ID='IGNITION-TIME-50-019', NO_UPDATE_DEVC_ID='IGNITION_DEVC-50-019', OUTPUT=.FALSE., QUANTITY='TIME', XYZ=0.1500,0.0500,0.0000, /
&SURF ID='SAMPLE-75-019', EXTERNAL_FLUX=1., HEAT_TRANSFER_COEFFICIENT=15.0000, HEAT_TRANSFER_COEFFICIENT_BACK=10., HRRPUA=1., IGNITION_TEMPERATURE=20.0, MATL_ID(1:2,1)='SAMPLE','BACKING', RAMP_EF='IGNITION_RAMP-75-019', RAMP_Q='CONE-RAMP', REFERENCE_HEAT_FLUX=75.0000, REFERENCE_HEAT_FLUX_TIME_INTERVAL=1., REFERENCE_CONE_THICKNESS=0.01983168, THICKNESS(1:2)=0.01983168,0.01270000, /
&RAMP ID='IGNITION_RAMP-75-019', T=0.0, F=100.0000, /
&RAMP ID='IGNITION_RAMP-75-019', T=1.0, F=100.0000, /
&OBST ID='SAMPLE-75-019', SURF_ID='SAMPLE-75-019', XB=0.2000,0.3000,0.0000,0.1000,0.0000,0.0000,DEVC_ID='TIGN-75-019', /
&DEVC ID='WALL TEMPERATURE-75-019', INITIAL_STATE=.FALSE., IOR=3, OUTPUT=.FALSE., QUANTITY='WALL TEMPERATURE', SETPOINT=20.0, XYZ=0.2500,0.0500,0.0000, /
&CTRL ID='IGNITION-CTRL-75-019', FUNCTION_TYPE='ANY', INPUT_ID='WALL TEMPERATURE-75-019', /
&DEVC ID='TIGN-75-019', XYZ=0,0,0, SETPOINT=15.0033, QUANTITY='TIME', INITIAL_STATE=.FALSE., /
&DEVC ID='IGNITION_DEVC-75-019', CTRL_ID='IGNITION-CTRL-75-019', IOR=3, OUTPUT=.FALSE., QUANTITY='CONTROL', XYZ=0.2500,0.0500,0.0000, /
&DEVC ID='HRRPUA-75-019', IOR=3, QUANTITY='HRRPUA', SPEC_ID='PROPANE', XYZ=0.2500,0.0500,0.0000, /
&DEVC ID='IGNITION-TIME-75-019', NO_UPDATE_DEVC_ID='IGNITION_DEVC-75-019', OUTPUT=.FALSE., QUANTITY='TIME', XYZ=0.2500,0.0500,0.0000, /
