&HEAD CHID='FSRI_Rebond_Foam_Carpet_Pad', /
&TIME DT=1., T_END=20000.0 /
&DUMP DT_CTRL=1.0, DT_DEVC=1.0, DT_HRR=1.0, SIG_FIGS=4, SIG_FIGS_EXP=2, /
&MISC SOLID_PHASE_ONLY=.TRUE., TMPA=27., /
&MESH ID='MESH', IJK=3,3,3, XB=0.,0.3,0.,0.3,0.,0.3, /
&REAC ID='PROPANE', FUEL='PROPANE', /
&MATL ID='BACKING', CONDUCTIVITY=0.10, DENSITY=65., EMISSIVITY=0.9, SPECIFIC_HEAT=1.14, /
&MATL ID='SAMPLE', CONDUCTIVITY=0.0440, DENSITY=85.7, EMISSIVITY=1.0000, SPECIFIC_HEAT=1820.0000, /
&RAMP ID='CONE-RAMP', T=0.0000, F=0.0, /
&RAMP ID='CONE-RAMP', T=0.0250, F=45.4, /
&RAMP ID='CONE-RAMP', T=0.9951, F=66.0, /
&RAMP ID='CONE-RAMP', T=1.9653, F=89.6, /
&RAMP ID='CONE-RAMP', T=2.9354, F=115.8, /
&RAMP ID='CONE-RAMP', T=3.9056, F=144.0, /
&RAMP ID='CONE-RAMP', T=4.8757, F=173.9, /
&RAMP ID='CONE-RAMP', T=5.8459, F=205.4, /
&RAMP ID='CONE-RAMP', T=6.8160, F=236.1, /
&RAMP ID='CONE-RAMP', T=7.7862, F=263.3, /
&RAMP ID='CONE-RAMP', T=8.7563, F=288.1, /
&RAMP ID='CONE-RAMP', T=9.7265, F=310.8, /
&RAMP ID='CONE-RAMP', T=10.6966, F=332.6, /
&RAMP ID='CONE-RAMP', T=11.6668, F=355.3, /
&RAMP ID='CONE-RAMP', T=12.6369, F=379.1, /
&RAMP ID='CONE-RAMP', T=13.6071, F=406.4, /
&RAMP ID='CONE-RAMP', T=14.5772, F=437.3, /
&RAMP ID='CONE-RAMP', T=15.5474, F=472.0, /
&RAMP ID='CONE-RAMP', T=16.5175, F=510.3, /
&RAMP ID='CONE-RAMP', T=17.4877, F=553.0, /
! ... 183 like lines cut
&SURF ID='SAMPLE-25-009', EXTERNAL_FLUX=1., HEAT_TRANSFER_COEFFICIENT=15.0000, HEAT_TRANSFER_COEFFICIENT_BACK=10., HRRPUA=1., IGNITION_TEMPERATURE=20.0, MATL_ID(1:2,1)='SAMPLE','BACKING', RAMP_EF='IGNITION_RAMP-25-009', RAMP_Q='CONE-RAMP', REFERENCE_HEAT_FLUX=93.9941, REFERENCE_HEAT_FLUX_TIME_INTERVAL=1., REFERENCE_CONE_THICKNESS=0.00901167, THICKNESS(1:2)=0.00901167,0.01270000, /
&RAMP ID='IGNITION_RAMP-25-009', T=0.0, F=59.6238, /
&RAMP ID='IGNITION_RAMP-25-009', T=1.0, F=59.6238, /
&OBST ID='SAMPLE-25-009', SURF_ID='SAMPLE-25-009', XB=0.0000,0.1000,0.0000,0.1000,0.0000,0.0000,DEVC_ID='TIGN-25-009', /
&DEVC ID='WALL TEMPERATURE-25-009', INITIAL_STATE=.FALSE., IOR=3, OUTPUT=.FALSE., QUANTITY='WALL TEMPERATURE', SETPOINT=20.0, XYZ=0.0500,0.0500,0.0000, /
&CTRL ID='IGNITION-CTRL-25-009', FUNCTION_TYPE='ANY', INPUT_ID='WALL TEMPERATURE-25-009', /
&DEVC ID='TIGN-25-009', XYZ=0,0,0, SETPOINT=4.0000, QUANTITY='TIME', INITIAL_STATE=.FALSE., /
&DEVC ID='IGNITION_DEVC-25-009', CTRL_ID='IGNITION-CTRL-25-009', IOR=3, OUTPUT=.FALSE., QUANTITY='CONTROL', XYZ=0.0500,0.0500,0.0000, /
&DEVC ID='HRRPUA-25-009', IOR=3, QUANTITY='HRRPUA', SPEC_ID='PROPANE', XYZ=0.0500,0.0500,0.0000, /
&DEVC ID='IGNITION-TIME-25-009', NO_UPDATE_DEVC_ID='IGNITION_DEVC-25-009', OUTPUT=.FALSE., QUANTITY='TIME', XYZ=0.0500,0.0500,0.0000, /
&SURF ID='SAMPLE-50-009', EXTERNAL_FLUX=1., HEAT_TRANSFER_COEFFICIENT=15.0000, HEAT_TRANSFER_COEFFICIENT_BACK=10., HRRPUA=1., IGNITION_TEMPERATURE=20.0, MATL_ID(1:2,1)='SAMPLE','BACKING', RAMP_EF='IGNITION_RAMP-50-009', RAMP_Q='CONE-RAMP', REFERENCE_HEAT_FLUX=93.9941, REFERENCE_HEAT_FLUX_TIME_INTERVAL=1., REFERENCE_CONE_THICKNESS=0.00901167, THICKNESS(1:2)=0.00901167,0.01270000, /
&RAMP ID='IGNITION_RAMP-50-009', T=0.0, F=93.9941, /
&RAMP ID='IGNITION_RAMP-50-009', T=1.0, F=93.9941, /
&OBST ID='SAMPLE-50-009', SURF_ID='SAMPLE-50-009', XB=0.1000,0.2000,0.0000,0.1000,0.0000,0.0000,DEVC_ID='TIGN-50-009', /
&DEVC ID='WALL TEMPERATURE-50-009', INITIAL_STATE=.FALSE., IOR=3, OUTPUT=.FALSE., QUANTITY='WALL TEMPERATURE', SETPOINT=20.0, XYZ=0.1500,0.0500,0.0000, /
&CTRL ID='IGNITION-CTRL-50-009', FUNCTION_TYPE='ANY', INPUT_ID='WALL TEMPERATURE-50-009', /
&DEVC ID='TIGN-50-009', XYZ=0,0,0, SETPOINT=0.2250, QUANTITY='TIME', INITIAL_STATE=.FALSE., /
&DEVC ID='IGNITION_DEVC-50-009', CTRL_ID='IGNITION-CTRL-50-009', IOR=3, OUTPUT=.FALSE., QUANTITY='CONTROL', XYZ=0.1500,0.0500,0.0000, /
&DEVC ID='HRRPUA-50-009', IOR=3, QUANTITY='HRRPUA', SPEC_ID='PROPANE', XYZ=0.1500,0.0500,0.0000, /
&DEVC ID='IGNITION-TIME-50-009', NO_UPDATE_DEVC_ID='IGNITION_DEVC-50-009', OUTPUT=.FALSE., QUANTITY='TIME', XYZ=0.1500,0.0500,0.0000, /
&SURF ID='SAMPLE-75-009', EXTERNAL_FLUX=1., HEAT_TRANSFER_COEFFICIENT=15.0000, HEAT_TRANSFER_COEFFICIENT_BACK=10., HRRPUA=1., IGNITION_TEMPERATURE=20.0, MATL_ID(1:2,1)='SAMPLE','BACKING', RAMP_EF='IGNITION_RAMP-75-009', RAMP_Q='CONE-RAMP', REFERENCE_HEAT_FLUX=93.9941, REFERENCE_HEAT_FLUX_TIME_INTERVAL=1., REFERENCE_CONE_THICKNESS=0.00901167, THICKNESS(1:2)=0.00901167,0.01270000, /
&RAMP ID='IGNITION_RAMP-75-009', T=0.0, F=125.9930, /
&RAMP ID='IGNITION_RAMP-75-009', T=1.0, F=125.9930, /
&OBST ID='SAMPLE-75-009', SURF_ID='SAMPLE-75-009', XB=0.2000,0.3000,0.0000,0.1000,0.0000,0.0000,DEVC_ID='TIGN-75-009', /
&DEVC ID='WALL TEMPERATURE-75-009', INITIAL_STATE=.FALSE., IOR=3, OUTPUT=.FALSE., QUANTITY='WALL TEMPERATURE', SETPOINT=20.0, XYZ=0.2500,0.0500,0.0000, /
&CTRL ID='IGNITION-CTRL-75-009', FUNCTION_TYPE='ANY', INPUT_ID='WALL TEMPERATURE-75-009', /
&DEVC ID='TIGN-75-009', XYZ=0,0,0, SETPOINT=0.2250, QUANTITY='TIME', INITIAL_STATE=.FALSE., /
&DEVC ID='IGNITION_DEVC-75-009', CTRL_ID='IGNITION-CTRL-75-009', IOR=3, OUTPUT=.FALSE., QUANTITY='CONTROL', XYZ=0.2500,0.0500,0.0000, /
&DEVC ID='HRRPUA-75-009', IOR=3, QUANTITY='HRRPUA', SPEC_ID='PROPANE', XYZ=0.2500,0.0500,0.0000, /
&DEVC ID='IGNITION-TIME-75-009', NO_UPDATE_DEVC_ID='IGNITION_DEVC-75-009', OUTPUT=.FALSE., QUANTITY='TIME', XYZ=0.2500,0.0500,0.0000, /
