&HEAD CHID='JH_OSB', /
&TIME DT=1., T_END=20000.0 /
&DUMP DT_CTRL=1.0, DT_DEVC=1.0, DT_HRR=1.0, SIG_FIGS=4, SIG_FIGS_EXP=2, /
&MISC SOLID_PHASE_ONLY=.TRUE., TMPA=27., /
&MESH ID='MESH', IJK=3,3,3, XB=0.,0.3,0.,0.3,0.,0.3, /
&REAC ID='PROPANE', FUEL='PROPANE', /
&MATL ID='BACKING', CONDUCTIVITY=0.10, DENSITY=65., EMISSIVITY=0.9, SPECIFIC_HEAT=1.14, /
&MATL ID='SAMPLE', CONDUCTIVITY=0.3835, DENSITY=573.0, EMISSIVITY=0.9266, SPECIFIC_HEAT=0.6301, /
&RAMP ID='CONE-RAMP', T=0.0000, F=0.0, /
&RAMP ID='CONE-RAMP', T=7.5000, F=68.5, /
&RAMP ID='CONE-RAMP', T=15.0000, F=138.7, /
&RAMP ID='CONE-RAMP', T=22.5000, F=178.0, /
&RAMP ID='CONE-RAMP', T=30.0000, F=215.8, /
&RAMP ID='CONE-RAMP', T=37.5000, F=221.9, /
&RAMP ID='CONE-RAMP', T=45.0000, F=225.6, /
&RAMP ID='CONE-RAMP', T=52.5000, F=225.3, /
&RAMP ID='CONE-RAMP', T=60.0000, F=224.5, /
&RAMP ID='CONE-RAMP', T=67.5000, F=219.6, /
&RAMP ID='CONE-RAMP', T=75.0000, F=214.1, /
&RAMP ID='CONE-RAMP', T=82.5000, F=204.7, /
&RAMP ID='CONE-RAMP', T=90.0000, F=194.7, /
&RAMP ID='CONE-RAMP', T=97.5000, F=186.4, /
&RAMP ID='CONE-RAMP', T=105.0000, F=178.4, /
&RAMP ID='CONE-RAMP', T=112.5000, F=173.1, /
&RAMP ID='CONE-RAMP', T=120.0000, F=168.5, /
&RAMP ID='CONE-RAMP', T=127.5000, F=164.2, /
&RAMP ID='CONE-RAMP', T=135.0000, F=160.1, /
&RAMP ID='CONE-RAMP', T=142.5000, F=157.5, /
! ... 100 like lines cut
&SURF ID='SAMPLE-25-016', EXTERNAL_FLUX=1., HEAT_TRANSFER_COEFFICIENT=0.0000, HEAT_TRANSFER_COEFFICIENT_BACK=10., HRRPUA=1., IGNITION_TEMPERATURE=20.0, MATL_ID(1:2,1)='SAMPLE','BACKING', RAMP_EF='IGNITION_RAMP-25-016', RAMP_Q='CONE-RAMP', REFERENCE_HEAT_FLUX=65.8190, REFERENCE_HEAT_FLUX_TIME_INTERVAL=1., REFERENCE_CONE_THICKNESS=0.01610000, THICKNESS(1:2)=0.01610000,0.01270000, /
&RAMP ID='IGNITION_RAMP-25-016', T=0.0, F=34.3869, /
&RAMP ID='IGNITION_RAMP-25-016', T=1.0, F=34.3869, /
&OBST ID='SAMPLE-25-016', SURF_ID='SAMPLE-25-016', XB=0.0000,0.1000,0.0000,0.1000,0.0000,0.0000,DEVC_ID='TIGN-25-016', /
&DEVC ID='WALL TEMPERATURE-25-016', INITIAL_STATE=.FALSE., IOR=3, OUTPUT=.FALSE., QUANTITY='WALL TEMPERATURE', SETPOINT=20.0, XYZ=0.0500,0.0500,0.0000, /
&CTRL ID='IGNITION-CTRL-25-016', FUNCTION_TYPE='ANY', INPUT_ID='WALL TEMPERATURE-25-016', /
&DEVC ID='TIGN-25-016', XYZ=0,0,0, SETPOINT=90.0000, QUANTITY='TIME', INITIAL_STATE=.FALSE., /
&DEVC ID='IGNITION_DEVC-25-016', CTRL_ID='IGNITION-CTRL-25-016', IOR=3, OUTPUT=.FALSE., QUANTITY='CONTROL', XYZ=0.0500,0.0500,0.0000, /
&DEVC ID='HRRPUA-25-016', IOR=3, QUANTITY='HRRPUA', SPEC_ID='PROPANE', XYZ=0.0500,0.0500,0.0000, /
&DEVC ID='IGNITION-TIME-25-016', NO_UPDATE_DEVC_ID='IGNITION_DEVC-25-016', OUTPUT=.FALSE., QUANTITY='TIME', XYZ=0.0500,0.0500,0.0000, /
&SURF ID='SAMPLE-50-016', EXTERNAL_FLUX=1., HEAT_TRANSFER_COEFFICIENT=0.0000, HEAT_TRANSFER_COEFFICIENT_BACK=10., HRRPUA=1., IGNITION_TEMPERATURE=20.0, MATL_ID(1:2,1)='SAMPLE','BACKING', RAMP_EF='IGNITION_RAMP-50-016', RAMP_Q='CONE-RAMP', REFERENCE_HEAT_FLUX=65.8190, REFERENCE_HEAT_FLUX_TIME_INTERVAL=1., REFERENCE_CONE_THICKNESS=0.01610000, THICKNESS(1:2)=0.01610000,0.01270000, /
&RAMP ID='IGNITION_RAMP-50-016', T=0.0, F=65.8190, /
&RAMP ID='IGNITION_RAMP-50-016', T=1.0, F=65.8190, /
&OBST ID='SAMPLE-50-016', SURF_ID='SAMPLE-50-016', XB=0.1000,0.2000,0.0000,0.1000,0.0000,0.0000,DEVC_ID='TIGN-50-016', /
&DEVC ID='WALL TEMPERATURE-50-016', INITIAL_STATE=.FALSE., IOR=3, OUTPUT=.FALSE., QUANTITY='WALL TEMPERATURE', SETPOINT=20.0, XYZ=0.1500,0.0500,0.0000, /
&CTRL ID='IGNITION-CTRL-50-016', FUNCTION_TYPE='ANY', INPUT_ID='WALL TEMPERATURE-50-016', /
&DEVC ID='TIGN-50-016', XYZ=0,0,0, SETPOINT=15.0000, QUANTITY='TIME', INITIAL_STATE=.FALSE., /
&DEVC ID='IGNITION_DEVC-50-016', CTRL_ID='IGNITION-CTRL-50-016', IOR=3, OUTPUT=.FALSE., QUANTITY='CONTROL', XYZ=0.1500,0.0500,0.0000, /
&DEVC ID='HRRPUA-50-016', IOR=3, QUANTITY='HRRPUA', SPEC_ID='PROPANE', XYZ=0.1500,0.0500,0.0000, /
&DEVC ID='IGNITION-TIME-50-016', NO_UPDATE_DEVC_ID='IGNITION_DEVC-50-016', OUTPUT=.FALSE., QUANTITY='TIME', XYZ=0.1500,0.0500,0.0000, /
&SURF ID='SAMPLE-70-016', EXTERNAL_FLUX=1., HEAT_TRANSFER_COEFFICIENT=0.0000, HEAT_TRANSFER_COEFFICIENT_BACK=10., HRRPUA=1., IGNITION_TEMPERATURE=20.0, MATL_ID(1:2,1)='SAMPLE','BACKING', RAMP_EF='IGNITION_RAMP-70-016', RAMP_Q='CONE-RAMP', REFERENCE_HEAT_FLUX=65.8190, REFERENCE_HEAT_FLUX_TIME_INTERVAL=1., REFERENCE_CONE_THICKNESS=0.01610000, THICKNESS(1:2)=0.01610000,0.01270000, /
&RAMP ID='IGNITION_RAMP-70-016', T=0.0, F=89.4965, /
&RAMP ID='IGNITION_RAMP-70-016', T=1.0, F=89.4965, /
&OBST ID='SAMPLE-70-016', SURF_ID='SAMPLE-70-016', XB=0.2000,0.3000,0.0000,0.1000,0.0000,0.0000,DEVC_ID='TIGN-70-016', /
&DEVC ID='WALL TEMPERATURE-70-016', INITIAL_STATE=.FALSE., IOR=3, OUTPUT=.FALSE., QUANTITY='WALL TEMPERATURE', SETPOINT=20.0, XYZ=0.2500,0.0500,0.0000, /
&CTRL ID='IGNITION-CTRL-70-016', FUNCTION_TYPE='ANY', INPUT_ID='WALL TEMPERATURE-70-016', /
&DEVC ID='TIGN-70-016', XYZ=0,0,0, SETPOINT=0.0000, QUANTITY='TIME', INITIAL_STATE=.FALSE., /
&DEVC ID='IGNITION_DEVC-70-016', CTRL_ID='IGNITION-CTRL-70-016', IOR=3, OUTPUT=.FALSE., QUANTITY='CONTROL', XYZ=0.2500,0.0500,0.0000, /
&DEVC ID='HRRPUA-70-016', IOR=3, QUANTITY='HRRPUA', SPEC_ID='PROPANE', XYZ=0.2500,0.0500,0.0000, /
&DEVC ID='IGNITION-TIME-70-016', NO_UPDATE_DEVC_ID='IGNITION_DEVC-70-016', OUTPUT=.FALSE., QUANTITY='TIME', XYZ=0.2500,0.0500,0.0000, /
