&HEAD CHID='FSRI_Luan_Panel', /
&TIME DT=1., T_END=20000.0 /
&DUMP DT_CTRL=1.0, DT_DEVC=1.0, DT_HRR=1.0, SIG_FIGS=4, SIG_FIGS_EXP=2, /
&MISC SOLID_PHASE_ONLY=.TRUE., TMPA=27., /
&MESH ID='MESH', IJK=3,3,3, XB=0.,0.3,0.,0.3,0.,0.3, /
&REAC ID='PROPANE', FUEL='PROPANE', /
&MATL ID='BACKING', CONDUCTIVITY=0.10, DENSITY=65., EMISSIVITY=0.9, SPECIFIC_HEAT=1.14, /
&MATL ID='SAMPLE', CONDUCTIVITY=0.0730, DENSITY=344.7, EMISSIVITY=1.0000, SPECIFIC_HEAT=1578.0000, /
&RAMP ID='CONE-RAMP', T=0.0000, F=4.8, /
&RAMP ID='CONE-RAMP', T=2.2619, F=23.4, /
&RAMP ID='CONE-RAMP', T=4.5238, F=57.5, /
&RAMP ID='CONE-RAMP', T=6.7857, F=103.9, /
&RAMP ID='CONE-RAMP', T=9.0476, F=157.5, /
&RAMP ID='CONE-RAMP', T=11.3095, F=204.9, /
&RAMP ID='CONE-RAMP', T=13.5714, F=237.3, /
&RAMP ID='CONE-RAMP', T=15.8333, F=252.6, /
&RAMP ID='CONE-RAMP', T=18.0952, F=254.1, /
&RAMP ID='CONE-RAMP', T=20.3571, F=245.4, /
&RAMP ID='CONE-RAMP', T=22.6190, F=230.4, /
&RAMP ID='CONE-RAMP', T=24.8810, F=213.4, /
&RAMP ID='CONE-RAMP', T=27.1429, F=196.9, /
&RAMP ID='CONE-RAMP', T=29.4048, F=182.1, /
&RAMP ID='CONE-RAMP', T=31.6667, F=170.7, /
&RAMP ID='CONE-RAMP', T=33.9286, F=162.9, /
&RAMP ID='CONE-RAMP', T=36.1905, F=159.1, /
&RAMP ID='CONE-RAMP', T=38.4524, F=159.2, /
&RAMP ID='CONE-RAMP', T=40.7143, F=162.3, /
&RAMP ID='CONE-RAMP', T=42.9762, F=167.4, /
! ... 107 like lines cut
&SURF ID='SAMPLE-25-005', EXTERNAL_FLUX=1., HEAT_TRANSFER_COEFFICIENT=15.0000, HEAT_TRANSFER_COEFFICIENT_BACK=10., HRRPUA=1., IGNITION_TEMPERATURE=20.0, MATL_ID(1:2,1)='SAMPLE','BACKING', RAMP_EF='IGNITION_RAMP-25-005', RAMP_Q='CONE-RAMP', REFERENCE_HEAT_FLUX=75.0000, REFERENCE_HEAT_FLUX_TIME_INTERVAL=1., REFERENCE_CONE_THICKNESS=0.00586654, THICKNESS(1:2)=0.00586654,0.01270000, /
&RAMP ID='IGNITION_RAMP-25-005', T=0.0, F=50.0000, /
&RAMP ID='IGNITION_RAMP-25-005', T=1.0, F=50.0000, /
&OBST ID='SAMPLE-25-005', SURF_ID='SAMPLE-25-005', XB=0.0000,0.1000,0.0000,0.1000,0.0000,0.0000,DEVC_ID='TIGN-25-005', /
&DEVC ID='WALL TEMPERATURE-25-005', INITIAL_STATE=.FALSE., IOR=3, OUTPUT=.FALSE., QUANTITY='WALL TEMPERATURE', SETPOINT=20.0, XYZ=0.0500,0.0500,0.0000, /
&CTRL ID='IGNITION-CTRL-25-005', FUNCTION_TYPE='ANY', INPUT_ID='WALL TEMPERATURE-25-005', /
&DEVC ID='TIGN-25-005', XYZ=0,0,0, SETPOINT=78.0833, QUANTITY='TIME', INITIAL_STATE=.FALSE., /
&DEVC ID='IGNITION_DEVC-25-005', CTRL_ID='IGNITION-CTRL-25-005', IOR=3, OUTPUT=.FALSE., QUANTITY='CONTROL', XYZ=0.0500,0.0500,0.0000, /
&DEVC ID='HRRPUA-25-005', IOR=3, QUANTITY='HRRPUA', SPEC_ID='PROPANE', XYZ=0.0500,0.0500,0.0000, /
&DEVC ID='IGNITION-TIME-25-005', NO_UPDATE_DEVC_ID='IGNITION_DEVC-25-005', OUTPUT=.FALSE., QUANTITY='TIME', XYZ=0.0500,0.0500,0.0000, /
&SURF ID='SAMPLE-50-005', EXTERNAL_FLUX=1., HEAT_TRANSFER_COEFFICIENT=15.0000, HEAT_TRANSFER_COEFFICIENT_BACK=10., HRRPUA=1., IGNITION_TEMPERATURE=20.0, MATL_ID(1:2,1)='SAMPLE','BACKING', RAMP_EF='IGNITION_RAMP-50-005', RAMP_Q='CONE-RAMP', REFERENCE_HEAT_FLUX=75.0000, REFERENCE_HEAT_FLUX_TIME_INTERVAL=1., REFERENCE_CONE_THICKNESS=0.00586654, THICKNESS(1:2)=0.00586654,0.01270000, /
&RAMP ID='IGNITION_RAMP-50-005', T=0.0, F=75.0000, /
&RAMP ID='IGNITION_RAMP-50-005', T=1.0, F=75.0000, /
&OBST ID='SAMPLE-50-005', SURF_ID='SAMPLE-50-005', XB=0.1000,0.2000,0.0000,0.1000,0.0000,0.0000,DEVC_ID='TIGN-50-005', /
&DEVC ID='WALL TEMPERATURE-50-005', INITIAL_STATE=.FALSE., IOR=3, OUTPUT=.FALSE., QUANTITY='WALL TEMPERATURE', SETPOINT=20.0, XYZ=0.1500,0.0500,0.0000, /
&CTRL ID='IGNITION-CTRL-50-005', FUNCTION_TYPE='ANY', INPUT_ID='WALL TEMPERATURE-50-005', /
&DEVC ID='TIGN-50-005', XYZ=0,0,0, SETPOINT=10.1250, QUANTITY='TIME', INITIAL_STATE=.FALSE., /
&DEVC ID='IGNITION_DEVC-50-005', CTRL_ID='IGNITION-CTRL-50-005', IOR=3, OUTPUT=.FALSE., QUANTITY='CONTROL', XYZ=0.1500,0.0500,0.0000, /
&DEVC ID='HRRPUA-50-005', IOR=3, QUANTITY='HRRPUA', SPEC_ID='PROPANE', XYZ=0.1500,0.0500,0.0000, /
&DEVC ID='IGNITION-TIME-50-005', NO_UPDATE_DEVC_ID='IGNITION_DEVC-50-005', OUTPUT=.FALSE., QUANTITY='TIME', XYZ=0.1500,0.0500,0.0000, /
&SURF ID='SAMPLE-75-005', EXTERNAL_FLUX=1., HEAT_TRANSFER_COEFFICIENT=15.0000, HEAT_TRANSFER_COEFFICIENT_BACK=10., HRRPUA=1., IGNITION_TEMPERATURE=20.0, MATL_ID(1:2,1)='SAMPLE','BACKING', RAMP_EF='IGNITION_RAMP-75-005', RAMP_Q='CONE-RAMP', REFERENCE_HEAT_FLUX=75.0000, REFERENCE_HEAT_FLUX_TIME_INTERVAL=1., REFERENCE_CONE_THICKNESS=0.00586654, THICKNESS(1:2)=0.00586654,0.01270000, /
&RAMP ID='IGNITION_RAMP-75-005', T=0.0, F=100.0000, /
&RAMP ID='IGNITION_RAMP-75-005', T=1.0, F=100.0000, /
&OBST ID='SAMPLE-75-005', SURF_ID='SAMPLE-75-005', XB=0.2000,0.3000,0.0000,0.1000,0.0000,0.0000,DEVC_ID='TIGN-75-005', /
&DEVC ID='WALL TEMPERATURE-75-005', INITIAL_STATE=.FALSE., IOR=3, OUTPUT=.FALSE., QUANTITY='WALL TEMPERATURE', SETPOINT=20.0, XYZ=0.2500,0.0500,0.0000, /
&CTRL ID='IGNITION-CTRL-75-005', FUNCTION_TYPE='ANY', INPUT_ID='WALL TEMPERATURE-75-005', /
&DEVC ID='TIGN-75-005', XYZ=0,0,0, SETPOINT=4.2194, QUANTITY='TIME', INITIAL_STATE=.FALSE., /
&DEVC ID='IGNITION_DEVC-75-005', CTRL_ID='IGNITION-CTRL-75-005', IOR=3, OUTPUT=.FALSE., QUANTITY='CONTROL', XYZ=0.2500,0.0500,0.0000, /
&DEVC ID='HRRPUA-75-005', IOR=3, QUANTITY='HRRPUA', SPEC_ID='PROPANE', XYZ=0.2500,0.0500,0.0000, /
&DEVC ID='IGNITION-TIME-75-005', NO_UPDATE_DEVC_ID='IGNITION_DEVC-75-005', OUTPUT=.FALSE., QUANTITY='TIME', XYZ=0.2500,0.0500,0.0000, /
