&HEAD CHID='FSRI_Black_PMMA', /
&TIME DT=1., T_END=1908.7 /
&DUMP DT_CTRL=1.0, DT_DEVC=1.0, DT_HRR=1.0, SIG_FIGS=4, SIG_FIGS_EXP=2, /
&MISC SOLID_PHASE_ONLY=.TRUE., TMPA=27., /
&MESH ID='MESH', IJK=3,3,3, XB=0.,0.3,0.,0.3,0.,0.3, /
&REAC ID='PROPANE', FUEL='PROPANE', /
&MATL ID='BACKING', CONDUCTIVITY=0.10, DENSITY=65., EMISSIVITY=0.9, SPECIFIC_HEAT=1.14, /
&MATL ID='SAMPLE', CONDUCTIVITY=0.1550, DENSITY=1182.0, EMISSIVITY=1.0000, SPECIFIC_HEAT=1478.0000, /
&RAMP ID='CONE-RAMP', T=0.0000, F=58.5, /
&RAMP ID='CONE-RAMP', T=1.6445, F=103.6, /
&RAMP ID='CONE-RAMP', T=3.2890, F=161.7, /
&RAMP ID='CONE-RAMP', T=4.9336, F=230.7, /
&RAMP ID='CONE-RAMP', T=6.5781, F=302.6, /
&RAMP ID='CONE-RAMP', T=8.2226, F=371.5, /
&RAMP ID='CONE-RAMP', T=9.8671, F=434.0, /
&RAMP ID='CONE-RAMP', T=11.5116, F=487.1, /
&RAMP ID='CONE-RAMP', T=13.1561, F=529.9, /
&RAMP ID='CONE-RAMP', T=14.8007, F=563.6, /
&RAMP ID='CONE-RAMP', T=16.4452, F=591.5, /
&RAMP ID='CONE-RAMP', T=18.0897, F=613.8, /
&RAMP ID='CONE-RAMP', T=19.7342, F=632.0, /
&RAMP ID='CONE-RAMP', T=21.3787, F=646.5, /
&RAMP ID='CONE-RAMP', T=23.0233, F=659.3, /
&RAMP ID='CONE-RAMP', T=24.6678, F=669.8, /
&RAMP ID='CONE-RAMP', T=26.3123, F=678.7, /
&RAMP ID='CONE-RAMP', T=27.9568, F=684.8, /
&RAMP ID='CONE-RAMP', T=29.6013, F=690.8, /
&RAMP ID='CONE-RAMP', T=31.2458, F=696.4, /
! ... 281 like lines cut
&SURF ID='SAMPLE-25-008', EXTERNAL_FLUX=1., HEAT_TRANSFER_COEFFICIENT=15.0000, HEAT_TRANSFER_COEFFICIENT_BACK=10., HRRPUA=1., IGNITION_TEMPERATURE=20.0, MATL_ID(1:2,1)='SAMPLE','BACKING', RAMP_EF='IGNITION_RAMP-25-008', RAMP_Q='CONE-RAMP', REFERENCE_HEAT_FLUX=94.9079, REFERENCE_HEAT_FLUX_TIME_INTERVAL=1., REFERENCE_CONE_THICKNESS=0.00869247, THICKNESS(1:2)=0.00869247,0.01270000, /
&RAMP ID='IGNITION_RAMP-25-008', T=0.0, F=60.4699, /
&RAMP ID='IGNITION_RAMP-25-008', T=1.0, F=60.4699, /
&OBST ID='SAMPLE-25-008', SURF_ID='SAMPLE-25-008', XB=0.0000,0.1000,0.0000,0.1000,0.0000,0.0000,DEVC_ID='TIGN-25-008', /
&DEVC ID='WALL TEMPERATURE-25-008', INITIAL_STATE=.FALSE., IOR=3, OUTPUT=.FALSE., QUANTITY='WALL TEMPERATURE', SETPOINT=20.0, XYZ=0.0500,0.0500,0.0000, /
&CTRL ID='IGNITION-CTRL-25-008', FUNCTION_TYPE='ANY', INPUT_ID='WALL TEMPERATURE-25-008', /
&DEVC ID='TIGN-25-008', XYZ=0,0,0, SETPOINT=119.6018, QUANTITY='TIME', INITIAL_STATE=.FALSE., /
&DEVC ID='IGNITION_DEVC-25-008', CTRL_ID='IGNITION-CTRL-25-008', IOR=3, OUTPUT=.FALSE., QUANTITY='CONTROL', XYZ=0.0500,0.0500,0.0000, /
&DEVC ID='HRRPUA-25-008', IOR=3, QUANTITY='HRRPUA', SPEC_ID='PROPANE', XYZ=0.0500,0.0500,0.0000, /
&DEVC ID='IGNITION-TIME-25-008', NO_UPDATE_DEVC_ID='IGNITION_DEVC-25-008', OUTPUT=.FALSE., QUANTITY='TIME', XYZ=0.0500,0.0500,0.0000, /
&SURF ID='SAMPLE-50-008', EXTERNAL_FLUX=1., HEAT_TRANSFER_COEFFICIENT=15.0000, HEAT_TRANSFER_COEFFICIENT_BACK=10., HRRPUA=1., IGNITION_TEMPERATURE=20.0, MATL_ID(1:2,1)='SAMPLE','BACKING', RAMP_EF='IGNITION_RAMP-50-008', RAMP_Q='CONE-RAMP', REFERENCE_HEAT_FLUX=94.9079, REFERENCE_HEAT_FLUX_TIME_INTERVAL=1., REFERENCE_CONE_THICKNESS=0.00869247, THICKNESS(1:2)=0.00869247,0.01270000, /
&RAMP ID='IGNITION_RAMP-50-008', T=0.0, F=94.9079, /
&RAMP ID='IGNITION_RAMP-50-008', T=1.0, F=94.9079, /
&OBST ID='SAMPLE-50-008', SURF_ID='SAMPLE-50-008', XB=0.1000,0.2000,0.0000,0.1000,0.0000,0.0000,DEVC_ID='TIGN-50-008', /
&DEVC ID='WALL TEMPERATURE-50-008', INITIAL_STATE=.FALSE., IOR=3, OUTPUT=.FALSE., QUANTITY='WALL TEMPERATURE', SETPOINT=20.0, XYZ=0.1500,0.0500,0.0000, /
&CTRL ID='IGNITION-CTRL-50-008', FUNCTION_TYPE='ANY', INPUT_ID='WALL TEMPERATURE-50-008', /
&DEVC ID='TIGN-50-008', XYZ=0,0,0, SETPOINT=26.6445, QUANTITY='TIME', INITIAL_STATE=.FALSE., /
&DEVC ID='IGNITION_DEVC-50-008', CTRL_ID='IGNITION-CTRL-50-008', IOR=3, OUTPUT=.FALSE., QUANTITY='CONTROL', XYZ=0.1500,0.0500,0.0000, /
&DEVC ID='HRRPUA-50-008', IOR=3, QUANTITY='HRRPUA', SPEC_ID='PROPANE', XYZ=0.1500,0.0500,0.0000, /
&DEVC ID='IGNITION-TIME-50-008', NO_UPDATE_DEVC_ID='IGNITION_DEVC-50-008', OUTPUT=.FALSE., QUANTITY='TIME', XYZ=0.1500,0.0500,0.0000, /
&SURF ID='SAMPLE-75-008', EXTERNAL_FLUX=1., HEAT_TRANSFER_COEFFICIENT=15.0000, HEAT_TRANSFER_COEFFICIENT_BACK=10., HRRPUA=1., IGNITION_TEMPERATURE=20.0, MATL_ID(1:2,1)='SAMPLE','BACKING', RAMP_EF='IGNITION_RAMP-75-008', RAMP_Q='CONE-RAMP', REFERENCE_HEAT_FLUX=94.9079, REFERENCE_HEAT_FLUX_TIME_INTERVAL=1., REFERENCE_CONE_THICKNESS=0.00869247, THICKNESS(1:2)=0.00869247,0.01270000, /
&RAMP ID='IGNITION_RAMP-75-008', T=0.0, F=126.9703, /
&RAMP ID='IGNITION_RAMP-75-008', T=1.0, F=126.9703, /
&OBST ID='SAMPLE-75-008', SURF_ID='SAMPLE-75-008', XB=0.2000,0.3000,0.0000,0.1000,0.0000,0.0000,DEVC_ID='TIGN-75-008', /
&DEVC ID='WALL TEMPERATURE-75-008', INITIAL_STATE=.FALSE., IOR=3, OUTPUT=.FALSE., QUANTITY='WALL TEMPERATURE', SETPOINT=20.0, XYZ=0.2500,0.0500,0.0000, /
&CTRL ID='IGNITION-CTRL-75-008', FUNCTION_TYPE='ANY', INPUT_ID='WALL TEMPERATURE-75-008', /
&DEVC ID='TIGN-75-008', XYZ=0,0,0, SETPOINT=9.8750, QUANTITY='TIME', INITIAL_STATE=.FALSE., /
&DEVC ID='IGNITION_DEVC-75-008', CTRL_ID='IGNITION-CTRL-75-008', IOR=3, OUTPUT=.FALSE., QUANTITY='CONTROL', XYZ=0.2500,0.0500,0.0000, /
&DEVC ID='HRRPUA-75-008', IOR=3, QUANTITY='HRRPUA', SPEC_ID='PROPANE', XYZ=0.2500,0.0500,0.0000, /
&DEVC ID='IGNITION-TIME-75-008', NO_UPDATE_DEVC_ID='IGNITION_DEVC-75-008', OUTPUT=.FALSE., QUANTITY='TIME', XYZ=0.2500,0.0500,0.0000, /
