&HEAD CHID='FSRI_OSB', /
&TIME DT=1., T_END=20000.0 /
&DUMP DT_CTRL=1.0, DT_DEVC=1.0, DT_HRR=1.0, SIG_FIGS=4, SIG_FIGS_EXP=2, /
&MISC SOLID_PHASE_ONLY=.TRUE., TMPA=27., /
&MESH ID='MESH', IJK=3,3,3, XB=0.,0.3,0.,0.3,0.,0.3, /
&REAC ID='PROPANE', FUEL='PROPANE', /
&MATL ID='BACKING', CONDUCTIVITY=0.10, DENSITY=65., EMISSIVITY=0.9, SPECIFIC_HEAT=1.14, /
&MATL ID='SAMPLE', CONDUCTIVITY=0.1190, DENSITY=598.4, EMISSIVITY=1.0000, SPECIFIC_HEAT=1576.0000, /
&RAMP ID='CONE-RAMP', T=0.0000, F=40.4, /
&RAMP ID='CONE-RAMP', T=1.1976, F=59.2, /
&RAMP ID='CONE-RAMP', T=2.3951, F=80.7, /
&RAMP ID='CONE-RAMP', T=3.5927, F=104.4, /
&RAMP ID='CONE-RAMP', T=4.7903, F=129.5, /
&RAMP ID='CONE-RAMP', T=5.9878, F=154.0, /
&RAMP ID='CONE-RAMP', T=7.1854, F=176.3, /
&RAMP ID='CONE-RAMP', T=8.3829, F=195.8, /
&RAMP ID='CONE-RAMP', T=9.5805, F=211.6, /
&RAMP ID='CONE-RAMP', T=10.7781, F=224.1, /
&RAMP ID='CONE-RAMP', T=11.9756, F=234.3, /
&RAMP ID='CONE-RAMP', T=13.1732, F=242.2, /
&RAMP ID='CONE-RAMP', T=14.3708, F=248.5, /
&RAMP ID='CONE-RAMP', T=15.5683, F=253.1, /
&RAMP ID='CONE-RAMP', T=16.7659, F=256.8, /
&RAMP ID='CONE-RAMP', T=17.9635, F=259.6, /
&RAMP ID='CONE-RAMP', T=19.1610, F=261.6, /
&RAMP ID='CONE-RAMP', T=20.3586, F=263.4, /
&RAMP ID='CONE-RAMP', T=21.5562, F=264.7, /
&RAMP ID='CONE-RAMP', T=22.7537, F=265.7, /
! ... 718 like lines cut
&SURF ID='SAMPLE-25-016', EXTERNAL_FLUX=1., HEAT_TRANSFER_COEFFICIENT=15.0000, HEAT_TRANSFER_COEFFICIENT_BACK=10., HRRPUA=1., IGNITION_TEMPERATURE=20.0, MATL_ID(1:2,1)='SAMPLE','BACKING', RAMP_EF='IGNITION_RAMP-25-016', RAMP_Q='CONE-RAMP', REFERENCE_HEAT_FLUX=75.0000, REFERENCE_HEAT_FLUX_TIME_INTERVAL=1., REFERENCE_CONE_THICKNESS=0.01693222, THICKNESS(1:2)=0.01693222,0.01270000, /
&RAMP ID='IGNITION_RAMP-25-016', T=0.0, F=50.0000, /
&RAMP ID='IGNITION_RAMP-25-016', T=1.0, F=50.0000, /
&OBST ID='SAMPLE-25-016', SURF_ID='SAMPLE-25-016', XB=0.0000,0.1000,0.0000,0.1000,0.0000,0.0000,DEVC_ID='TIGN-25-016', /
&DEVC ID='WALL TEMPERATURE-25-016', INITIAL_STATE=.FALSE., IOR=3, OUTPUT=.FALSE., QUANTITY='WALL TEMPERATURE', SETPOINT=20.0, XYZ=0.0500,0.0500,0.0000, /
&CTRL ID='IGNITION-CTRL-25-016', FUNCTION_TYPE='ANY', INPUT_ID='WALL TEMPERATURE-25-016', /
&DEVC ID='TIGN-25-016', XYZ=0,0,0, SETPOINT=174.9087, QUANTITY='TIME', INITIAL_STATE=.FALSE., /
&DEVC ID='IGNITION_DEVC-25-016', CTRL_ID='IGNITION-CTRL-25-016', IOR=3, OUTPUT=.FALSE., QUANTITY='CONTROL', XYZ=0.0500,0.0500,0.0000, /
&DEVC ID='HRRPUA-25-016', IOR=3, QUANTITY='HRRPUA', SPEC_ID='PROPANE', XYZ=0.0500,0.0500,0.0000, /
&DEVC ID='IGNITION-TIME-25-016', NO_UPDATE_DEVC_ID='IGNITION_DEVC-25-016', OUTPUT=.FALSE., QUANTITY='TIME', XYZ=0.0500,0.0500,0.0000, /
&SURF ID='SAMPLE-50-016', EXTERNAL_FLUX=1., HEAT_TRANSFER_COEFFICIENT=15.0000, HEAT_TRANSFER_COEFFICIENT_BACK=10., HRRPUA=1., IGNITION_TEMPERATURE=20.0, MATL_ID(1:2,1)='SAMPLE','BACKING', RAMP_EF='IGNITION_RAMP-50-016', RAMP_Q='CONE-RAMP', REFERENCE_HEAT_FLUX=75.0000, REFERENCE_HEAT_FLUX_TIME_INTERVAL=1., REFERENCE_CONE_THICKNESS=0.01693222, THICKNESS(1:2)=0.01693222,0.01270000, /
&RAMP ID='IGNITION_RAMP-50-016', T=0.0, F=75.0000, /
&RAMP ID='IGNITION_RAMP-50-016', T=1.0, F=75.0000, /
&OBST ID='SAMPLE-50-016', SURF_ID='SAMPLE-50-016', XB=0.1000,0.2000,0.0000,0.1000,0.0000,0.0000,DEVC_ID='TIGN-50-016', /
&DEVC ID='WALL TEMPERATURE-50-016', INITIAL_STATE=.FALSE., IOR=3, OUTPUT=.FALSE., QUANTITY='WALL TEMPERATURE', SETPOINT=20.0, XYZ=0.1500,0.0500,0.0000, /
&CTRL ID='IGNITION-CTRL-50-016', FUNCTION_TYPE='ANY', INPUT_ID='WALL TEMPERATURE-50-016', /
&DEVC ID='TIGN-50-016', XYZ=0,0,0, SETPOINT=23.1451, QUANTITY='TIME', INITIAL_STATE=.FALSE., /
&DEVC ID='IGNITION_DEVC-50-016', CTRL_ID='IGNITION-CTRL-50-016', IOR=3, OUTPUT=.FALSE., QUANTITY='CONTROL', XYZ=0.1500,0.0500,0.0000, /
&DEVC ID='HRRPUA-50-016', IOR=3, QUANTITY='HRRPUA', SPEC_ID='PROPANE', XYZ=0.1500,0.0500,0.0000, /
&DEVC ID='IGNITION-TIME-50-016', NO_UPDATE_DEVC_ID='IGNITION_DEVC-50-016', OUTPUT=.FALSE., QUANTITY='TIME', XYZ=0.1500,0.0500,0.0000, /
&SURF ID='SAMPLE-75-016', EXTERNAL_FLUX=1., HEAT_TRANSFER_COEFFICIENT=15.0000, HEAT_TRANSFER_COEFFICIENT_BACK=10., HRRPUA=1., IGNITION_TEMPERATURE=20.0, MATL_ID(1:2,1)='SAMPLE','BACKING', RAMP_EF='IGNITION_RAMP-75-016', RAMP_Q='CONE-RAMP', REFERENCE_HEAT_FLUX=75.0000, REFERENCE_HEAT_FLUX_TIME_INTERVAL=1., REFERENCE_CONE_THICKNESS=0.01693222, THICKNESS(1:2)=0.01693222,0.01270000, /
&RAMP ID='IGNITION_RAMP-75-016', T=0.0, F=100.0000, /
&RAMP ID='IGNITION_RAMP-75-016', T=1.0, F=100.0000, /
&OBST ID='SAMPLE-75-016', SURF_ID='SAMPLE-75-016', XB=0.2000,0.3000,0.0000,0.1000,0.0000,0.0000,DEVC_ID='TIGN-75-016', /
&DEVC ID='WALL TEMPERATURE-75-016', INITIAL_STATE=.FALSE., IOR=3, OUTPUT=.FALSE., QUANTITY='WALL TEMPERATURE', SETPOINT=20.0, XYZ=0.2500,0.0500,0.0000, /
&CTRL ID='IGNITION-CTRL-75-016', FUNCTION_TYPE='ANY', INPUT_ID='WALL TEMPERATURE-75-016', /
&DEVC ID='TIGN-75-016', XYZ=0,0,0, SETPOINT=10.2278, QUANTITY='TIME', INITIAL_STATE=.FALSE., /
&DEVC ID='IGNITION_DEVC-75-016', CTRL_ID='IGNITION-CTRL-75-016', IOR=3, OUTPUT=.FALSE., QUANTITY='CONTROL', XYZ=0.2500,0.0500,0.0000, /
&DEVC ID='HRRPUA-75-016', IOR=3, QUANTITY='HRRPUA', SPEC_ID='PROPANE', XYZ=0.2500,0.0500,0.0000, /
&DEVC ID='IGNITION-TIME-75-016', NO_UPDATE_DEVC_ID='IGNITION_DEVC-75-016', OUTPUT=.FALSE., QUANTITY='TIME', XYZ=0.2500,0.0500,0.0000, /
