&HEAD CHID='FSRI_Particleboard', /
&TIME DT=1., T_END=20000.0 /
&DUMP DT_CTRL=1.0, DT_DEVC=1.0, DT_HRR=1.0, SIG_FIGS=4, SIG_FIGS_EXP=2, /
&MISC SOLID_PHASE_ONLY=.TRUE., TMPA=27., /
&MESH ID='MESH', IJK=3,3,3, XB=0.,0.3,0.,0.3,0.,0.3, /
&REAC ID='PROPANE', FUEL='PROPANE', /
&MATL ID='BACKING', CONDUCTIVITY=0.10, DENSITY=65., EMISSIVITY=0.9, SPECIFIC_HEAT=1.14, /
&MATL ID='SAMPLE', CONDUCTIVITY=0.1340, DENSITY=677.0, EMISSIVITY=1.0000, SPECIFIC_HEAT=1578.0000, /
&RAMP ID='CONE-RAMP', T=0.0000, F=40.4, /
&RAMP ID='CONE-RAMP', T=0.9694, F=51.6, /
&RAMP ID='CONE-RAMP', T=1.9387, F=64.1, /
&RAMP ID='CONE-RAMP', T=2.9081, F=77.7, /
&RAMP ID='CONE-RAMP', T=3.8774, F=91.9, /
&RAMP ID='CONE-RAMP', T=4.8468, F=106.1, /
&RAMP ID='CONE-RAMP', T=5.8161, F=120.2, /
&RAMP ID='CONE-RAMP', T=6.7855, F=133.7, /
&RAMP ID='CONE-RAMP', T=7.7548, F=146.9, /
&RAMP ID='CONE-RAMP', T=8.7242, F=159.8, /
&RAMP ID='CONE-RAMP', T=9.6935, F=172.4, /
&RAMP ID='CONE-RAMP', T=10.6629, F=184.3, /
&RAMP ID='CONE-RAMP', T=11.6322, F=195.3, /
&RAMP ID='CONE-RAMP', T=12.6016, F=205.6, /
&RAMP ID='CONE-RAMP', T=13.5710, F=215.3, /
&RAMP ID='CONE-RAMP', T=14.5403, F=224.3, /
&RAMP ID='CONE-RAMP', T=15.5097, F=232.8, /
&RAMP ID='CONE-RAMP', T=16.4790, F=241.0, /
&RAMP ID='CONE-RAMP', T=17.4484, F=248.6, /
&RAMP ID='CONE-RAMP', T=18.4177, F=255.3, /
! ... 1478 like lines cut
&SURF ID='SAMPLE-25-020', EXTERNAL_FLUX=1., HEAT_TRANSFER_COEFFICIENT=15.0000, HEAT_TRANSFER_COEFFICIENT_BACK=10., HRRPUA=1., IGNITION_TEMPERATURE=20.0, MATL_ID(1:2,1)='SAMPLE','BACKING', RAMP_EF='IGNITION_RAMP-25-020', RAMP_Q='CONE-RAMP', REFERENCE_HEAT_FLUX=75.0000, REFERENCE_HEAT_FLUX_TIME_INTERVAL=1., REFERENCE_CONE_THICKNESS=0.02032496, THICKNESS(1:2)=0.02032496,0.01270000, /
&RAMP ID='IGNITION_RAMP-25-020', T=0.0, F=50.0000, /
&RAMP ID='IGNITION_RAMP-25-020', T=1.0, F=50.0000, /
&OBST ID='SAMPLE-25-020', SURF_ID='SAMPLE-25-020', XB=0.0000,0.1000,0.0000,0.1000,0.0000,0.0000,DEVC_ID='TIGN-25-020', /
&DEVC ID='WALL TEMPERATURE-25-020', INITIAL_STATE=.FALSE., IOR=3, OUTPUT=.FALSE., QUANTITY='WALL TEMPERATURE', SETPOINT=20.0, XYZ=0.0500,0.0500,0.0000, /
&CTRL ID='IGNITION-CTRL-25-020', FUNCTION_TYPE='ANY', INPUT_ID='WALL TEMPERATURE-25-020', /
&DEVC ID='TIGN-25-020', XYZ=0,0,0, SETPOINT=157.1607, QUANTITY='TIME', INITIAL_STATE=.FALSE., /
&DEVC ID='IGNITION_DEVC-25-020', CTRL_ID='IGNITION-CTRL-25-020', IOR=3, OUTPUT=.FALSE., QUANTITY='CONTROL', XYZ=0.0500,0.0500,0.0000, /
&DEVC ID='HRRPUA-25-020', IOR=3, QUANTITY='HRRPUA', SPEC_ID='PROPANE', XYZ=0.0500,0.0500,0.0000, /
&DEVC ID='IGNITION-TIME-25-020', NO_UPDATE_DEVC_ID='IGNITION_DEVC-25-020', OUTPUT=.FALSE., QUANTITY='TIME', XYZ=0.0500,0.0500,0.0000, /
&SURF ID='SAMPLE-50-020', EXTERNAL_FLUX=1., HEAT_TRANSFER_COEFFICIENT=15.0000, HEAT_TRANSFER_COEFFICIENT_BACK=10., HRRPUA=1., IGNITION_TEMPERATURE=20.0, MATL_ID(1:2,1)='SAMPLE','BACKING', RAMP_EF='IGNITION_RAMP-50-020', RAMP_Q='CONE-RAMP', REFERENCE_HEAT_FLUX=75.0000, REFERENCE_HEAT_FLUX_TIME_INTERVAL=1., REFERENCE_CONE_THICKNESS=0.02032496, THICKNESS(1:2)=0.02032496,0.01270000, /
&RAMP ID='IGNITION_RAMP-50-020', T=0.0, F=75.0000, /
&RAMP ID='IGNITION_RAMP-50-020', T=1.0, F=75.0000, /
&OBST ID='SAMPLE-50-020', SURF_ID='SAMPLE-50-020', XB=0.1000,0.2000,0.0000,0.1000,0.0000,0.0000,DEVC_ID='TIGN-50-020', /
&DEVC ID='WALL TEMPERATURE-50-020', INITIAL_STATE=.FALSE., IOR=3, OUTPUT=.FALSE., QUANTITY='WALL TEMPERATURE', SETPOINT=20.0, XYZ=0.1500,0.0500,0.0000, /
&CTRL ID='IGNITION-CTRL-50-020', FUNCTION_TYPE='ANY', INPUT_ID='WALL TEMPERATURE-50-020', /
&DEVC ID='TIGN-50-020', XYZ=0,0,0, SETPOINT=47.3774, QUANTITY='TIME', INITIAL_STATE=.FALSE., /
&DEVC ID='IGNITION_DEVC-50-020', CTRL_ID='IGNITION-CTRL-50-020', IOR=3, OUTPUT=.FALSE., QUANTITY='CONTROL', XYZ=0.1500,0.0500,0.0000, /
&DEVC ID='HRRPUA-50-020', IOR=3, QUANTITY='HRRPUA', SPEC_ID='PROPANE', XYZ=0.1500,0.0500,0.0000, /
&DEVC ID='IGNITION-TIME-50-020', NO_UPDATE_DEVC_ID='IGNITION_DEVC-50-020', OUTPUT=.FALSE., QUANTITY='TIME', XYZ=0.1500,0.0500,0.0000, /
&SURF ID='SAMPLE-75-020', EXTERNAL_FLUX=1., HEAT_TRANSFER_COEFFICIENT=15.0000, HEAT_TRANSFER_COEFFICIENT_BACK=10., HRRPUA=1., IGNITION_TEMPERATURE=20.0, MATL_ID(1:2,1)='SAMPLE','BACKING', RAMP_EF='IGNITION_RAMP-75-020', RAMP_Q='CONE-RAMP', REFERENCE_HEAT_FLUX=75.0000, REFERENCE_HEAT_FLUX_TIME_INTERVAL=1., REFERENCE_CONE_THICKNESS=0.02032496, THICKNESS(1:2)=0.02032496,0.01270000, /
&RAMP ID='IGNITION_RAMP-75-020', T=0.0, F=100.0000, /
&RAMP ID='IGNITION_RAMP-75-020', T=1.0, F=100.0000, /
&OBST ID='SAMPLE-75-020', SURF_ID='SAMPLE-75-020', XB=0.2000,0.3000,0.0000,0.1000,0.0000,0.0000,DEVC_ID='TIGN-75-020', /
&DEVC ID='WALL TEMPERATURE-75-020', INITIAL_STATE=.FALSE., IOR=3, OUTPUT=.FALSE., QUANTITY='WALL TEMPERATURE', SETPOINT=20.0, XYZ=0.2500,0.0500,0.0000, /
&CTRL ID='IGNITION-CTRL-75-020', FUNCTION_TYPE='ANY', INPUT_ID='WALL TEMPERATURE-75-020', /
&DEVC ID='TIGN-75-020', XYZ=0,0,0, SETPOINT=27.8471, QUANTITY='TIME', INITIAL_STATE=.FALSE., /
&DEVC ID='IGNITION_DEVC-75-020', CTRL_ID='IGNITION-CTRL-75-020', IOR=3, OUTPUT=.FALSE., QUANTITY='CONTROL', XYZ=0.2500,0.0500,0.0000, /
&DEVC ID='HRRPUA-75-020', IOR=3, QUANTITY='HRRPUA', SPEC_ID='PROPANE', XYZ=0.2500,0.0500,0.0000, /
&DEVC ID='IGNITION-TIME-75-020', NO_UPDATE_DEVC_ID='IGNITION_DEVC-75-020', OUTPUT=.FALSE., QUANTITY='TIME', XYZ=0.2500,0.0500,0.0000, /
