&HEAD CHID='JH_White_Pine', /
&TIME DT=1., T_END=20000.0 /
&DUMP DT_CTRL=1.0, DT_DEVC=1.0, DT_HRR=1.0, SIG_FIGS=4, SIG_FIGS_EXP=2, /
&MISC SOLID_PHASE_ONLY=.TRUE., TMPA=27., /
&MESH ID='MESH', IJK=3,3,3, XB=0.,0.3,0.,0.3,0.,0.3, /
&REAC ID='PROPANE', FUEL='PROPANE', /
&MATL ID='BACKING', CONDUCTIVITY=0.10, DENSITY=65., EMISSIVITY=0.9, SPECIFIC_HEAT=1.14, /
&MATL ID='SAMPLE', CONDUCTIVITY=0.3121, DENSITY=499.0, EMISSIVITY=0.9035, SPECIFIC_HEAT=0.5963, /
&RAMP ID='CONE-RAMP', T=0.0000, F=0.0, /
&RAMP ID='CONE-RAMP', T=7.5000, F=66.9, /
&RAMP ID='CONE-RAMP', T=15.0000, F=133.3, /
&RAMP ID='CONE-RAMP', T=22.5000, F=175.0, /
&RAMP ID='CONE-RAMP', T=30.0000, F=215.5, /
&RAMP ID='CONE-RAMP', T=37.5000, F=211.9, /
&RAMP ID='CONE-RAMP', T=45.0000, F=204.9, /
&RAMP ID='CONE-RAMP', T=52.5000, F=197.0, /
&RAMP ID='CONE-RAMP', T=60.0000, F=188.9, /
&RAMP ID='CONE-RAMP', T=67.5000, F=183.2, /
&RAMP ID='CONE-RAMP', T=75.0000, F=177.8, /
&RAMP ID='CONE-RAMP', T=82.5000, F=171.9, /
&RAMP ID='CONE-RAMP', T=90.0000, F=165.9, /
&RAMP ID='CONE-RAMP', T=97.5000, F=162.2, /
&RAMP ID='CONE-RAMP', T=105.0000, F=158.9, /
&RAMP ID='CONE-RAMP', T=112.5000, F=157.5, /
&RAMP ID='CONE-RAMP', T=120.0000, F=156.5, /
&RAMP ID='CONE-RAMP', T=127.5000, F=154.2, /
&RAMP ID='CONE-RAMP', T=135.0000, F=151.5, /
&RAMP ID='CONE-RAMP', T=142.5000, F=148.9, /
! ... 326 like lines cut
&SURF ID='SAMPLE-25-019', EXTERNAL_FLUX=1., HEAT_TRANSFER_COEFFICIENT=0.0000, HEAT_TRANSFER_COEFFICIENT_BACK=10., HRRPUA=1., IGNITION_TEMPERATURE=20.0, MATL_ID(1:2,1)='SAMPLE','BACKING', RAMP_EF='IGNITION_RAMP-25-019', RAMP_Q='CONE-RAMP', REFERENCE_HEAT_FLUX=64.7013, REFERENCE_HEAT_FLUX_TIME_INTERVAL=1., REFERENCE_CONE_THICKNESS=0.01910000, THICKNESS(1:2)=0.01910000,0.01270000, /
&RAMP ID='IGNITION_RAMP-25-019', T=0.0, F=33.4333, /
&RAMP ID='IGNITION_RAMP-25-019', T=1.0, F=33.4333, /
&OBST ID='SAMPLE-25-019', SURF_ID='SAMPLE-25-019', XB=0.0000,0.1000,0.0000,0.1000,0.0000,0.0000,DEVC_ID='TIGN-25-019', /
&DEVC ID='WALL TEMPERATURE-25-019', INITIAL_STATE=.FALSE., IOR=3, OUTPUT=.FALSE., QUANTITY='WALL TEMPERATURE', SETPOINT=20.0, XYZ=0.0500,0.0500,0.0000, /
&CTRL ID='IGNITION-CTRL-25-019', FUNCTION_TYPE='ANY', INPUT_ID='WALL TEMPERATURE-25-019', /
&DEVC ID='TIGN-25-019', XYZ=0,0,0, SETPOINT=120.0000, QUANTITY='TIME', INITIAL_STATE=.FALSE., /
&DEVC ID='IGNITION_DEVC-25-019', CTRL_ID='IGNITION-CTRL-25-019', IOR=3, OUTPUT=.FALSE., QUANTITY='CONTROL', XYZ=0.0500,0.0500,0.0000, /
&DEVC ID='HRRPUA-25-019', IOR=3, QUANTITY='HRRPUA', SPEC_ID='PROPANE', XYZ=0.0500,0.0500,0.0000, /
&DEVC ID='IGNITION-TIME-25-019', NO_UPDATE_DEVC_ID='IGNITION_DEVC-25-019', OUTPUT=.FALSE., QUANTITY='TIME', XYZ=0.0500,0.0500,0.0000, /
&SURF ID='SAMPLE-50-019', EXTERNAL_FLUX=1., HEAT_TRANSFER_COEFFICIENT=0.0000, HEAT_TRANSFER_COEFFICIENT_BACK=10., HRRPUA=1., IGNITION_TEMPERATURE=20.0, MATL_ID(1:2,1)='SAMPLE','BACKING', RAMP_EF='IGNITION_RAMP-50-019', RAMP_Q='CONE-RAMP', REFERENCE_HEAT_FLUX=64.7013, REFERENCE_HEAT_FLUX_TIME_INTERVAL=1., REFERENCE_CONE_THICKNESS=0.01910000, THICKNESS(1:2)=0.01910000,0.01270000, /
&RAMP ID='IGNITION_RAMP-50-019', T=0.0, F=64.7013, /
&RAMP ID='IGNITION_RAMP-50-019', T=1.0, F=64.7013, /
&OBST ID='SAMPLE-50-019', SURF_ID='SAMPLE-50-019', XB=0.1000,0.2000,0.0000,0.1000,0.0000,0.0000,DEVC_ID='TIGN-50-019', /
&DEVC ID='WALL TEMPERATURE-50-019', INITIAL_STATE=.FALSE., IOR=3, OUTPUT=.FALSE., QUANTITY='WALL TEMPERATURE', SETPOINT=20.0, XYZ=0.1500,0.0500,0.0000, /
&CTRL ID='IGNITION-CTRL-50-019', FUNCTION_TYPE='ANY', INPUT_ID='WALL TEMPERATURE-50-019', /
&DEVC ID='TIGN-50-019', XYZ=0,0,0, SETPOINT=15.0000, QUANTITY='TIME', INITIAL_STATE=.FALSE., /
&DEVC ID='IGNITION_DEVC-50-019', CTRL_ID='IGNITION-CTRL-50-019', IOR=3, OUTPUT=.FALSE., QUANTITY='CONTROL', XYZ=0.1500,0.0500,0.0000, /
&DEVC ID='HRRPUA-50-019', IOR=3, QUANTITY='HRRPUA', SPEC_ID='PROPANE', XYZ=0.1500,0.0500,0.0000, /
&DEVC ID='IGNITION-TIME-50-019', NO_UPDATE_DEVC_ID='IGNITION_DEVC-50-019', OUTPUT=.FALSE., QUANTITY='TIME', XYZ=0.1500,0.0500,0.0000, /
&SURF ID='SAMPLE-70-019', EXTERNAL_FLUX=1., HEAT_TRANSFER_COEFFICIENT=0.0000, HEAT_TRANSFER_COEFFICIENT_BACK=10., HRRPUA=1., IGNITION_TEMPERATURE=20.0, MATL_ID(1:2,1)='SAMPLE','BACKING', RAMP_EF='IGNITION_RAMP-70-019', RAMP_Q='CONE-RAMP', REFERENCE_HEAT_FLUX=64.7013, REFERENCE_HEAT_FLUX_TIME_INTERVAL=1., REFERENCE_CONE_THICKNESS=0.01910000, THICKNESS(1:2)=0.01910000,0.01270000, /
&RAMP ID='IGNITION_RAMP-70-019', T=0.0, F=88.2741, /
&RAMP ID='IGNITION_RAMP-70-019', T=1.0, F=88.2741, /
&OBST ID='SAMPLE-70-019', SURF_ID='SAMPLE-70-019', XB=0.2000,0.3000,0.0000,0.1000,0.0000,0.0000,DEVC_ID='TIGN-70-019', /
&DEVC ID='WALL TEMPERATURE-70-019', INITIAL_STATE=.FALSE., IOR=3, OUTPUT=.FALSE., QUANTITY='WALL TEMPERATURE', SETPOINT=20.0, XYZ=0.2500,0.0500,0.0000, /
&CTRL ID='IGNITION-CTRL-70-019', FUNCTION_TYPE='ANY', INPUT_ID='WALL TEMPERATURE-70-019', /
&DEVC ID='TIGN-70-019', XYZ=0,0,0, SETPOINT=7.5000, QUANTITY='TIME', INITIAL_STATE=.FALSE., /
&DEVC ID='IGNITION_DEVC-70-019', CTRL_ID='IGNITION-CTRL-70-019', IOR=3, OUTPUT=.FALSE., QUANTITY='CONTROL', XYZ=0.2500,0.0500,0.0000, /
&DEVC ID='HRRPUA-70-019', IOR=3, QUANTITY='HRRPUA', SPEC_ID='PROPANE', XYZ=0.2500,0.0500,0.0000, /
&DEVC ID='IGNITION-TIME-70-019', NO_UPDATE_DEVC_ID='IGNITION_DEVC-70-019', OUTPUT=.FALSE., QUANTITY='TIME', XYZ=0.2500,0.0500,0.0000, /
