&HEAD CHID='FSRI_Eucalyptus_Flooring', /
&TIME DT=1., T_END=20000.0 /
&DUMP DT_CTRL=1.0, DT_DEVC=1.0, DT_HRR=1.0, SIG_FIGS=4, SIG_FIGS_EXP=2, /
&MISC SOLID_PHASE_ONLY=.TRUE., TMPA=27., /
&MESH ID='MESH', IJK=3,3,3, XB=0.,0.3,0.,0.3,0.,0.3, /
&REAC ID='PROPANE', FUEL='PROPANE', /
&MATL ID='BACKING', CONDUCTIVITY=0.10, DENSITY=65., EMISSIVITY=0.9, SPECIFIC_HEAT=1.14, /
&MATL ID='SAMPLE', CONDUCTIVITY=0.1820, DENSITY=1025.0, EMISSIVITY=1.0000, SPECIFIC_HEAT=1673.0000, /
&RAMP ID='CONE-RAMP', T=0.0000, F=38.9, /
&RAMP ID='CONE-RAMP', T=1.8246, F=73.9, /
&RAMP ID='CONE-RAMP', T=3.6492, F=119.8, /
&RAMP ID='CONE-RAMP', T=5.4738, F=175.2, /
&RAMP ID='CONE-RAMP', T=7.2984, F=236.5, /
&RAMP ID='CONE-RAMP', T=9.1231, F=295.1, /
&RAMP ID='CONE-RAMP', T=10.9477, F=345.8, /
&RAMP ID='CONE-RAMP', T=12.7723, F=386.1, /
&RAMP ID='CONE-RAMP', T=14.5969, F=414.3, /
&RAMP ID='CONE-RAMP', T=16.4215, F=428.8, /
&RAMP ID='CONE-RAMP', T=18.2461, F=429.4, /
&RAMP ID='CONE-RAMP', T=20.0707, F=419.8, /
&RAMP ID='CONE-RAMP', T=21.8953, F=403.0, /
&RAMP ID='CONE-RAMP', T=23.7199, F=383.6, /
&RAMP ID='CONE-RAMP', T=25.5446, F=362.8, /
&RAMP ID='CONE-RAMP', T=27.3692, F=342.6, /
&RAMP ID='CONE-RAMP', T=29.1938, F=323.4, /
&RAMP ID='CONE-RAMP', T=31.0184, F=306.1, /
&RAMP ID='CONE-RAMP', T=32.8430, F=289.6, /
&RAMP ID='CONE-RAMP', T=34.6676, F=273.9, /
! ... 1394 like lines cut
&SURF ID='SAMPLE-25-015', EXTERNAL_FLUX=1., HEAT_TRANSFER_COEFFICIENT=15.0000, HEAT_TRANSFER_COEFFICIENT_BACK=10., HRRPUA=1., IGNITION_TEMPERATURE=20.0, MATL_ID(1:2,1)='SAMPLE','BACKING', RAMP_EF='IGNITION_RAMP-25-015', RAMP_Q='CONE-RAMP', REFERENCE_HEAT_FLUX=72.8642, REFERENCE_HEAT_FLUX_TIME_INTERVAL=1., REFERENCE_CONE_THICKNESS=0.01561659, THICKNESS(1:2)=0.01561659,0.01270000, /
&RAMP ID='IGNITION_RAMP-25-015', T=0.0, F=40.5032, /
&RAMP ID='IGNITION_RAMP-25-015', T=1.0, F=40.5032, /
&OBST ID='SAMPLE-25-015', SURF_ID='SAMPLE-25-015', XB=0.0000,0.1000,0.0000,0.1000,0.0000,0.0000,DEVC_ID='TIGN-25-015', /
&DEVC ID='WALL TEMPERATURE-25-015', INITIAL_STATE=.FALSE., IOR=3, OUTPUT=.FALSE., QUANTITY='WALL TEMPERATURE', SETPOINT=20.0, XYZ=0.0500,0.0500,0.0000, /
&CTRL ID='IGNITION-CTRL-25-015', FUNCTION_TYPE='ANY', INPUT_ID='WALL TEMPERATURE-25-015', /
&DEVC ID='TIGN-25-015', XYZ=0,0,0, SETPOINT=178.1600, QUANTITY='TIME', INITIAL_STATE=.FALSE., /
&DEVC ID='IGNITION_DEVC-25-015', CTRL_ID='IGNITION-CTRL-25-015', IOR=3, OUTPUT=.FALSE., QUANTITY='CONTROL', XYZ=0.0500,0.0500,0.0000, /
&DEVC ID='HRRPUA-25-015', IOR=3, QUANTITY='HRRPUA', SPEC_ID='PROPANE', XYZ=0.0500,0.0500,0.0000, /
&DEVC ID='IGNITION-TIME-25-015', NO_UPDATE_DEVC_ID='IGNITION_DEVC-25-015', OUTPUT=.FALSE., QUANTITY='TIME', XYZ=0.0500,0.0500,0.0000, /
&SURF ID='SAMPLE-50-015', EXTERNAL_FLUX=1., HEAT_TRANSFER_COEFFICIENT=15.0000, HEAT_TRANSFER_COEFFICIENT_BACK=10., HRRPUA=1., IGNITION_TEMPERATURE=20.0, MATL_ID(1:2,1)='SAMPLE','BACKING', RAMP_EF='IGNITION_RAMP-50-015', RAMP_Q='CONE-RAMP', REFERENCE_HEAT_FLUX=72.8642, REFERENCE_HEAT_FLUX_TIME_INTERVAL=1., REFERENCE_CONE_THICKNESS=0.01561659, THICKNESS(1:2)=0.01561659,0.01270000, /
&RAMP ID='IGNITION_RAMP-50-015', T=0.0, F=72.8642, /
&RAMP ID='IGNITION_RAMP-50-015', T=1.0, F=72.8642, /
&OBST ID='SAMPLE-50-015', SURF_ID='SAMPLE-50-015', XB=0.1000,0.2000,0.0000,0.1000,0.0000,0.0000,DEVC_ID='TIGN-50-015', /
&DEVC ID='WALL TEMPERATURE-50-015', INITIAL_STATE=.FALSE., IOR=3, OUTPUT=.FALSE., QUANTITY='WALL TEMPERATURE', SETPOINT=20.0, XYZ=0.1500,0.0500,0.0000, /
&CTRL ID='IGNITION-CTRL-50-015', FUNCTION_TYPE='ANY', INPUT_ID='WALL TEMPERATURE-50-015', /
&DEVC ID='TIGN-50-015', XYZ=0,0,0, SETPOINT=33.3246, QUANTITY='TIME', INITIAL_STATE=.FALSE., /
&DEVC ID='IGNITION_DEVC-50-015', CTRL_ID='IGNITION-CTRL-50-015', IOR=3, OUTPUT=.FALSE., QUANTITY='CONTROL', XYZ=0.1500,0.0500,0.0000, /
&DEVC ID='HRRPUA-50-015', IOR=3, QUANTITY='HRRPUA', SPEC_ID='PROPANE', XYZ=0.1500,0.0500,0.0000, /
&DEVC ID='IGNITION-TIME-50-015', NO_UPDATE_DEVC_ID='IGNITION_DEVC-50-015', OUTPUT=.FALSE., QUANTITY='TIME', XYZ=0.1500,0.0500,0.0000, /
&SURF ID='SAMPLE-75-015', EXTERNAL_FLUX=1., HEAT_TRANSFER_COEFFICIENT=15.0000, HEAT_TRANSFER_COEFFICIENT_BACK=10., HRRPUA=1., IGNITION_TEMPERATURE=20.0, MATL_ID(1:2,1)='SAMPLE','BACKING', RAMP_EF='IGNITION_RAMP-75-015', RAMP_Q='CONE-RAMP', REFERENCE_HEAT_FLUX=72.8642, REFERENCE_HEAT_FLUX_TIME_INTERVAL=1., REFERENCE_CONE_THICKNESS=0.01561659, THICKNESS(1:2)=0.01561659,0.01270000, /
&RAMP ID='IGNITION_RAMP-75-015', T=0.0, F=103.1030, /
&RAMP ID='IGNITION_RAMP-75-015', T=1.0, F=103.1030, /
&OBST ID='SAMPLE-75-015', SURF_ID='SAMPLE-75-015', XB=0.2000,0.3000,0.0000,0.1000,0.0000,0.0000,DEVC_ID='TIGN-75-015', /
&DEVC ID='WALL TEMPERATURE-75-015', INITIAL_STATE=.FALSE., IOR=3, OUTPUT=.FALSE., QUANTITY='WALL TEMPERATURE', SETPOINT=20.0, XYZ=0.2500,0.0500,0.0000, /
&CTRL ID='IGNITION-CTRL-75-015', FUNCTION_TYPE='ANY', INPUT_ID='WALL TEMPERATURE-75-015', /
&DEVC ID='TIGN-75-015', XYZ=0,0,0, SETPOINT=14.3238, QUANTITY='TIME', INITIAL_STATE=.FALSE., /
&DEVC ID='IGNITION_DEVC-75-015', CTRL_ID='IGNITION-CTRL-75-015', IOR=3, OUTPUT=.FALSE., QUANTITY='CONTROL', XYZ=0.2500,0.0500,0.0000, /
&DEVC ID='HRRPUA-75-015', IOR=3, QUANTITY='HRRPUA', SPEC_ID='PROPANE', XYZ=0.2500,0.0500,0.0000, /
&DEVC ID='IGNITION-TIME-75-015', NO_UPDATE_DEVC_ID='IGNITION_DEVC-75-015', OUTPUT=.FALSE., QUANTITY='TIME', XYZ=0.2500,0.0500,0.0000, /
