&HEAD CHID='FSRI_Polyolefin_Carpet_Low_Pile', /
&TIME DT=1., T_END=20000.0 /
&DUMP DT_CTRL=1.0, DT_DEVC=1.0, DT_HRR=1.0, SIG_FIGS=4, SIG_FIGS_EXP=2, /
&MISC SOLID_PHASE_ONLY=.TRUE., TMPA=27., /
&MESH ID='MESH', IJK=3,3,3, XB=0.,0.3,0.,0.3,0.,0.3, /
&REAC ID='PROPANE', FUEL='PROPANE', /
&MATL ID='BACKING', CONDUCTIVITY=0.10, DENSITY=65., EMISSIVITY=0.9, SPECIFIC_HEAT=1.14, /
&MATL ID='SAMPLE', CONDUCTIVITY=0.0600, DENSITY=214.0, EMISSIVITY=1.0000, SPECIFIC_HEAT=1349.0000, /
&RAMP ID='CONE-RAMP', T=0.0000, F=5.2, /
&RAMP ID='CONE-RAMP', T=2.7869, F=27.7, /
&RAMP ID='CONE-RAMP', T=5.5738, F=75.1, /
&RAMP ID='CONE-RAMP', T=8.3607, F=145.4, /
&RAMP ID='CONE-RAMP', T=11.1475, F=229.1, /
&RAMP ID='CONE-RAMP', T=13.9344, F=315.4, /
&RAMP ID='CONE-RAMP', T=16.7213, F=400.9, /
&RAMP ID='CONE-RAMP', T=19.5082, F=486.3, /
&RAMP ID='CONE-RAMP', T=22.2951, F=565.7, /
&RAMP ID='CONE-RAMP', T=25.0820, F=635.5, /
&RAMP ID='CONE-RAMP', T=27.8689, F=688.0, /
&RAMP ID='CONE-RAMP', T=30.6557, F=720.2, /
&RAMP ID='CONE-RAMP', T=33.4426, F=731.8, /
&RAMP ID='CONE-RAMP', T=36.2295, F=722.6, /
&RAMP ID='CONE-RAMP', T=39.0164, F=694.1, /
&RAMP ID='CONE-RAMP', T=41.8033, F=648.4, /
&RAMP ID='CONE-RAMP', T=44.5902, F=590.4, /
&RAMP ID='CONE-RAMP', T=47.3770, F=521.4, /
&RAMP ID='CONE-RAMP', T=50.1639, F=449.0, /
&RAMP ID='CONE-RAMP', T=52.9508, F=374.2, /
! ... 164 like lines cut
&SURF ID='SAMPLE-25-007', EXTERNAL_FLUX=1., HEAT_TRANSFER_COEFFICIENT=15.0000, HEAT_TRANSFER_COEFFICIENT_BACK=10., HRRPUA=1., IGNITION_TEMPERATURE=20.0, MATL_ID(1:2,1)='SAMPLE','BACKING', RAMP_EF='IGNITION_RAMP-25-007', RAMP_Q='CONE-RAMP', REFERENCE_HEAT_FLUX=75.0000, REFERENCE_HEAT_FLUX_TIME_INTERVAL=1., REFERENCE_CONE_THICKNESS=0.00715736, THICKNESS(1:2)=0.00715736,0.01270000, /
&RAMP ID='IGNITION_RAMP-25-007', T=0.0, F=52.5939, /
&RAMP ID='IGNITION_RAMP-25-007', T=1.0, F=52.5939, /
&OBST ID='SAMPLE-25-007', SURF_ID='SAMPLE-25-007', XB=0.0000,0.1000,0.0000,0.1000,0.0000,0.0000,DEVC_ID='TIGN-25-007', /
&DEVC ID='WALL TEMPERATURE-25-007', INITIAL_STATE=.FALSE., IOR=3, OUTPUT=.FALSE., QUANTITY='WALL TEMPERATURE', SETPOINT=20.0, XYZ=0.0500,0.0500,0.0000, /
&CTRL ID='IGNITION-CTRL-25-007', FUNCTION_TYPE='ANY', INPUT_ID='WALL TEMPERATURE-25-007', /
&DEVC ID='TIGN-25-007', XYZ=0,0,0, SETPOINT=36.2500, QUANTITY='TIME', INITIAL_STATE=.FALSE., /
&DEVC ID='IGNITION_DEVC-25-007', CTRL_ID='IGNITION-CTRL-25-007', IOR=3, OUTPUT=.FALSE., QUANTITY='CONTROL', XYZ=0.0500,0.0500,0.0000, /
&DEVC ID='HRRPUA-25-007', IOR=3, QUANTITY='HRRPUA', SPEC_ID='PROPANE', XYZ=0.0500,0.0500,0.0000, /
&DEVC ID='IGNITION-TIME-25-007', NO_UPDATE_DEVC_ID='IGNITION_DEVC-25-007', OUTPUT=.FALSE., QUANTITY='TIME', XYZ=0.0500,0.0500,0.0000, /
&SURF ID='SAMPLE-50-007', EXTERNAL_FLUX=1., HEAT_TRANSFER_COEFFICIENT=15.0000, HEAT_TRANSFER_COEFFICIENT_BACK=10., HRRPUA=1., IGNITION_TEMPERATURE=20.0, MATL_ID(1:2,1)='SAMPLE','BACKING', RAMP_EF='IGNITION_RAMP-50-007', RAMP_Q='CONE-RAMP', REFERENCE_HEAT_FLUX=75.0000, REFERENCE_HEAT_FLUX_TIME_INTERVAL=1., REFERENCE_CONE_THICKNESS=0.00715736, THICKNESS(1:2)=0.00715736,0.01270000, /
&RAMP ID='IGNITION_RAMP-50-007', T=0.0, F=86.3438, /
&RAMP ID='IGNITION_RAMP-50-007', T=1.0, F=86.3438, /
&OBST ID='SAMPLE-50-007', SURF_ID='SAMPLE-50-007', XB=0.1000,0.2000,0.0000,0.1000,0.0000,0.0000,DEVC_ID='TIGN-50-007', /
&DEVC ID='WALL TEMPERATURE-50-007', INITIAL_STATE=.FALSE., IOR=3, OUTPUT=.FALSE., QUANTITY='WALL TEMPERATURE', SETPOINT=20.0, XYZ=0.1500,0.0500,0.0000, /
&CTRL ID='IGNITION-CTRL-50-007', FUNCTION_TYPE='ANY', INPUT_ID='WALL TEMPERATURE-50-007', /
&DEVC ID='TIGN-50-007', XYZ=0,0,0, SETPOINT=7.5000, QUANTITY='TIME', INITIAL_STATE=.FALSE., /
&DEVC ID='IGNITION_DEVC-50-007', CTRL_ID='IGNITION-CTRL-50-007', IOR=3, OUTPUT=.FALSE., QUANTITY='CONTROL', XYZ=0.1500,0.0500,0.0000, /
&DEVC ID='HRRPUA-50-007', IOR=3, QUANTITY='HRRPUA', SPEC_ID='PROPANE', XYZ=0.1500,0.0500,0.0000, /
&DEVC ID='IGNITION-TIME-50-007', NO_UPDATE_DEVC_ID='IGNITION_DEVC-50-007', OUTPUT=.FALSE., QUANTITY='TIME', XYZ=0.1500,0.0500,0.0000, /
&SURF ID='SAMPLE-75-007', EXTERNAL_FLUX=1., HEAT_TRANSFER_COEFFICIENT=15.0000, HEAT_TRANSFER_COEFFICIENT_BACK=10., HRRPUA=1., IGNITION_TEMPERATURE=20.0, MATL_ID(1:2,1)='SAMPLE','BACKING', RAMP_EF='IGNITION_RAMP-75-007', RAMP_Q='CONE-RAMP', REFERENCE_HEAT_FLUX=75.0000, REFERENCE_HEAT_FLUX_TIME_INTERVAL=1., REFERENCE_CONE_THICKNESS=0.00715736, THICKNESS(1:2)=0.00715736,0.01270000, /
&RAMP ID='IGNITION_RAMP-75-007', T=0.0, F=117.7753, /
&RAMP ID='IGNITION_RAMP-75-007', T=1.0, F=117.7753, /
&OBST ID='SAMPLE-75-007', SURF_ID='SAMPLE-75-007', XB=0.2000,0.3000,0.0000,0.1000,0.0000,0.0000,DEVC_ID='TIGN-75-007', /
&DEVC ID='WALL TEMPERATURE-75-007', INITIAL_STATE=.FALSE., IOR=3, OUTPUT=.FALSE., QUANTITY='WALL TEMPERATURE', SETPOINT=20.0, XYZ=0.2500,0.0500,0.0000, /
&CTRL ID='IGNITION-CTRL-75-007', FUNCTION_TYPE='ANY', INPUT_ID='WALL TEMPERATURE-75-007', /
&DEVC ID='TIGN-75-007', XYZ=0,0,0, SETPOINT=3.2198, QUANTITY='TIME', INITIAL_STATE=.FALSE., /
&DEVC ID='IGNITION_DEVC-75-007', CTRL_ID='IGNITION-CTRL-75-007', IOR=3, OUTPUT=.FALSE., QUANTITY='CONTROL', XYZ=0.2500,0.0500,0.0000, /
&DEVC ID='HRRPUA-75-007', IOR=3, QUANTITY='HRRPUA', SPEC_ID='PROPANE', XYZ=0.2500,0.0500,0.0000, /
&DEVC ID='IGNITION-TIME-75-007', NO_UPDATE_DEVC_ID='IGNITION_DEVC-75-007', OUTPUT=.FALSE., QUANTITY='TIME', XYZ=0.2500,0.0500,0.0000, /
