&HEAD CHID='FSRI_Asphalt_Shingle', /
&TIME DT=1., T_END=20000.0 /
&DUMP DT_CTRL=1.0, DT_DEVC=1.0, DT_HRR=1.0, SIG_FIGS=4, SIG_FIGS_EXP=2, /
&MISC SOLID_PHASE_ONLY=.TRUE., TMPA=27., /
&MESH ID='MESH', IJK=3,3,3, XB=0.,0.3,0.,0.3,0.,0.3, /
&REAC ID='PROPANE', FUEL='PROPANE', /
&MATL ID='BACKING', CONDUCTIVITY=0.10, DENSITY=65., EMISSIVITY=0.9, SPECIFIC_HEAT=1.14, /
&MATL ID='SAMPLE', CONDUCTIVITY=0.0820, DENSITY=1219.0, EMISSIVITY=1.0000, SPECIFIC_HEAT=1007.0000, /
&RAMP ID='CONE-RAMP', T=0.0000, F=3.8, /
&RAMP ID='CONE-RAMP', T=1.8396, F=12.0, /
&RAMP ID='CONE-RAMP', T=3.6792, F=26.5, /
&RAMP ID='CONE-RAMP', T=5.5189, F=50.4, /
&RAMP ID='CONE-RAMP', T=7.3585, F=83.4, /
&RAMP ID='CONE-RAMP', T=9.1981, F=123.4, /
&RAMP ID='CONE-RAMP', T=11.0377, F=164.9, /
&RAMP ID='CONE-RAMP', T=12.8774, F=207.4, /
&RAMP ID='CONE-RAMP', T=14.7170, F=248.4, /
&RAMP ID='CONE-RAMP', T=16.5566, F=286.2, /
&RAMP ID='CONE-RAMP', T=18.3962, F=323.1, /
&RAMP ID='CONE-RAMP', T=20.2358, F=359.6, /
&RAMP ID='CONE-RAMP', T=22.0755, F=396.9, /
&RAMP ID='CONE-RAMP', T=23.9151, F=433.0, /
&RAMP ID='CONE-RAMP', T=25.7547, F=467.1, /
&RAMP ID='CONE-RAMP', T=27.5943, F=499.0, /
&RAMP ID='CONE-RAMP', T=29.4340, F=529.2, /
&RAMP ID='CONE-RAMP', T=31.2736, F=557.1, /
&RAMP ID='CONE-RAMP', T=33.1132, F=582.8, /
&RAMP ID='CONE-RAMP', T=34.9528, F=605.7, /
! ... 87 like lines cut
&SURF ID='SAMPLE-25-003', EXTERNAL_FLUX=1., HEAT_TRANSFER_COEFFICIENT=15.0000, HEAT_TRANSFER_COEFFICIENT_BACK=10., HRRPUA=1., IGNITION_TEMPERATURE=20.0, MATL_ID(1:2,1)='SAMPLE','BACKING', RAMP_EF='IGNITION_RAMP-25-003', RAMP_Q='CONE-RAMP', REFERENCE_HEAT_FLUX=83.6417, REFERENCE_HEAT_FLUX_TIME_INTERVAL=1., REFERENCE_CONE_THICKNESS=0.00300328, THICKNESS(1:2)=0.00300328,0.01270000, /
&RAMP ID='IGNITION_RAMP-25-003', T=0.0, F=50.1364, /
&RAMP ID='IGNITION_RAMP-25-003', T=1.0, F=50.1364, /
&OBST ID='SAMPLE-25-003', SURF_ID='SAMPLE-25-003', XB=0.0000,0.1000,0.0000,0.1000,0.0000,0.0000,DEVC_ID='TIGN-25-003', /
&DEVC ID='WALL TEMPERATURE-25-003', INITIAL_STATE=.FALSE., IOR=3, OUTPUT=.FALSE., QUANTITY='WALL TEMPERATURE', SETPOINT=20.0, XYZ=0.0500,0.0500,0.0000, /
&CTRL ID='IGNITION-CTRL-25-003', FUNCTION_TYPE='ANY', INPUT_ID='WALL TEMPERATURE-25-003', /
&DEVC ID='TIGN-25-003', XYZ=0,0,0, SETPOINT=86.6903, QUANTITY='TIME', INITIAL_STATE=.FALSE., /
&DEVC ID='IGNITION_DEVC-25-003', CTRL_ID='IGNITION-CTRL-25-003', IOR=3, OUTPUT=.FALSE., QUANTITY='CONTROL', XYZ=0.0500,0.0500,0.0000, /
&DEVC ID='HRRPUA-25-003', IOR=3, QUANTITY='HRRPUA', SPEC_ID='PROPANE', XYZ=0.0500,0.0500,0.0000, /
&DEVC ID='IGNITION-TIME-25-003', NO_UPDATE_DEVC_ID='IGNITION_DEVC-25-003', OUTPUT=.FALSE., QUANTITY='TIME', XYZ=0.0500,0.0500,0.0000, /
&SURF ID='SAMPLE-50-003', EXTERNAL_FLUX=1., HEAT_TRANSFER_COEFFICIENT=15.0000, HEAT_TRANSFER_COEFFICIENT_BACK=10., HRRPUA=1., IGNITION_TEMPERATURE=20.0, MATL_ID(1:2,1)='SAMPLE','BACKING', RAMP_EF='IGNITION_RAMP-50-003', RAMP_Q='CONE-RAMP', REFERENCE_HEAT_FLUX=83.6417, REFERENCE_HEAT_FLUX_TIME_INTERVAL=1., REFERENCE_CONE_THICKNESS=0.00300328, THICKNESS(1:2)=0.00300328,0.01270000, /
&RAMP ID='IGNITION_RAMP-50-003', T=0.0, F=83.6417, /
&RAMP ID='IGNITION_RAMP-50-003', T=1.0, F=83.6417, /
&OBST ID='SAMPLE-50-003', SURF_ID='SAMPLE-50-003', XB=0.1000,0.2000,0.0000,0.1000,0.0000,0.0000,DEVC_ID='TIGN-50-003', /
&DEVC ID='WALL TEMPERATURE-50-003', INITIAL_STATE=.FALSE., IOR=3, OUTPUT=.FALSE., QUANTITY='WALL TEMPERATURE', SETPOINT=20.0, XYZ=0.1500,0.0500,0.0000, /
&CTRL ID='IGNITION-CTRL-50-003', FUNCTION_TYPE='ANY', INPUT_ID='WALL TEMPERATURE-50-003', /
&DEVC ID='TIGN-50-003', XYZ=0,0,0, SETPOINT=23.0000, QUANTITY='TIME', INITIAL_STATE=.FALSE., /
&DEVC ID='IGNITION_DEVC-50-003', CTRL_ID='IGNITION-CTRL-50-003', IOR=3, OUTPUT=.FALSE., QUANTITY='CONTROL', XYZ=0.1500,0.0500,0.0000, /
&DEVC ID='HRRPUA-50-003', IOR=3, QUANTITY='HRRPUA', SPEC_ID='PROPANE', XYZ=0.1500,0.0500,0.0000, /
&DEVC ID='IGNITION-TIME-50-003', NO_UPDATE_DEVC_ID='IGNITION_DEVC-50-003', OUTPUT=.FALSE., QUANTITY='TIME', XYZ=0.1500,0.0500,0.0000, /
&SURF ID='SAMPLE-75-003', EXTERNAL_FLUX=1., HEAT_TRANSFER_COEFFICIENT=15.0000, HEAT_TRANSFER_COEFFICIENT_BACK=10., HRRPUA=1., IGNITION_TEMPERATURE=20.0, MATL_ID(1:2,1)='SAMPLE','BACKING', RAMP_EF='IGNITION_RAMP-75-003', RAMP_Q='CONE-RAMP', REFERENCE_HEAT_FLUX=83.6417, REFERENCE_HEAT_FLUX_TIME_INTERVAL=1., REFERENCE_CONE_THICKNESS=0.00300328, THICKNESS(1:2)=0.00300328,0.01270000, /
&RAMP ID='IGNITION_RAMP-75-003', T=0.0, F=114.8556, /
&RAMP ID='IGNITION_RAMP-75-003', T=1.0, F=114.8556, /
&OBST ID='SAMPLE-75-003', SURF_ID='SAMPLE-75-003', XB=0.2000,0.3000,0.0000,0.1000,0.0000,0.0000,DEVC_ID='TIGN-75-003', /
&DEVC ID='WALL TEMPERATURE-75-003', INITIAL_STATE=.FALSE., IOR=3, OUTPUT=.FALSE., QUANTITY='WALL TEMPERATURE', SETPOINT=20.0, XYZ=0.2500,0.0500,0.0000, /
&CTRL ID='IGNITION-CTRL-75-003', FUNCTION_TYPE='ANY', INPUT_ID='WALL TEMPERATURE-75-003', /
&DEVC ID='TIGN-75-003', XYZ=0,0,0, SETPOINT=11.2500, QUANTITY='TIME', INITIAL_STATE=.FALSE., /
&DEVC ID='IGNITION_DEVC-75-003', CTRL_ID='IGNITION-CTRL-75-003', IOR=3, OUTPUT=.FALSE., QUANTITY='CONTROL', XYZ=0.2500,0.0500,0.0000, /
&DEVC ID='HRRPUA-75-003', IOR=3, QUANTITY='HRRPUA', SPEC_ID='PROPANE', XYZ=0.2500,0.0500,0.0000, /
&DEVC ID='IGNITION-TIME-75-003', NO_UPDATE_DEVC_ID='IGNITION_DEVC-75-003', OUTPUT=.FALSE., QUANTITY='TIME', XYZ=0.2500,0.0500,0.0000, /
