&HEAD CHID='FSRI_Rug_Pad', /
&TIME DT=1., T_END=20000.0 /
&DUMP DT_CTRL=1.0, DT_DEVC=1.0, DT_HRR=1.0, SIG_FIGS=4, SIG_FIGS_EXP=2, /
&MISC SOLID_PHASE_ONLY=.TRUE., TMPA=27., /
&MESH ID='MESH', IJK=3,3,3, XB=0.,0.3,0.,0.3,0.,0.3, /
&REAC ID='PROPANE', FUEL='PROPANE', /
&MATL ID='BACKING', CONDUCTIVITY=0.10, DENSITY=65., EMISSIVITY=0.9, SPECIFIC_HEAT=1.14, /
&MATL ID='SAMPLE', CONDUCTIVITY=0.0500, DENSITY=176.3, EMISSIVITY=1.0000, SPECIFIC_HEAT=1100.0000, /
&RAMP ID='CONE-RAMP', T=0.0000, F=6.4, /
&RAMP ID='CONE-RAMP', T=0.9701, F=12.6, /
&RAMP ID='CONE-RAMP', T=1.9403, F=21.2, /
&RAMP ID='CONE-RAMP', T=2.9104, F=32.0, /
&RAMP ID='CONE-RAMP', T=3.8806, F=44.9, /
&RAMP ID='CONE-RAMP', T=4.8507, F=60.0, /
&RAMP ID='CONE-RAMP', T=5.8209, F=77.3, /
&RAMP ID='CONE-RAMP', T=6.7910, F=96.6, /
&RAMP ID='CONE-RAMP', T=7.7612, F=118.0, /
&RAMP ID='CONE-RAMP', T=8.7313, F=140.5, /
&RAMP ID='CONE-RAMP', T=9.7015, F=163.2, /
&RAMP ID='CONE-RAMP', T=10.6716, F=185.7, /
&RAMP ID='CONE-RAMP', T=11.6418, F=208.1, /
&RAMP ID='CONE-RAMP', T=12.6119, F=229.8, /
&RAMP ID='CONE-RAMP', T=13.5821, F=251.0, /
&RAMP ID='CONE-RAMP', T=14.5522, F=271.0, /
&RAMP ID='CONE-RAMP', T=15.5224, F=290.0, /
&RAMP ID='CONE-RAMP', T=16.4925, F=307.5, /
&RAMP ID='CONE-RAMP', T=17.4627, F=323.2, /
&RAMP ID='CONE-RAMP', T=18.4328, F=336.7, /
! ... 382 like lines cut
&SURF ID='SAMPLE-25-004', EXTERNAL_FLUX=1., HEAT_TRANSFER_COEFFICIENT=0.0000, HEAT_TRANSFER_COEFFICIENT_BACK=10., HRRPUA=1., IGNITION_TEMPERATURE=20.0, MATL_ID(1:2,1)='SAMPLE','BACKING', RAMP_EF='IGNITION_RAMP-25-004', RAMP_Q='CONE-RAMP', REFERENCE_HEAT_FLUX=74.2643, REFERENCE_HEAT_FLUX_TIME_INTERVAL=1., REFERENCE_CONE_THICKNESS=0.00406049, THICKNESS(1:2)=0.00406049,0.01270000, /
&RAMP ID='IGNITION_RAMP-25-004', T=0.0, F=41.7378, /
&RAMP ID='IGNITION_RAMP-25-004', T=1.0, F=41.7378, /
&OBST ID='SAMPLE-25-004', SURF_ID='SAMPLE-25-004', XB=0.0000,0.1000,0.0000,0.1000,0.0000,0.0000,DEVC_ID='TIGN-25-004', /
&DEVC ID='WALL TEMPERATURE-25-004', INITIAL_STATE=.FALSE., IOR=3, OUTPUT=.FALSE., QUANTITY='WALL TEMPERATURE', SETPOINT=20.0, XYZ=0.0500,0.0500,0.0000, /
&CTRL ID='IGNITION-CTRL-25-004', FUNCTION_TYPE='ANY', INPUT_ID='WALL TEMPERATURE-25-004', /
&DEVC ID='TIGN-25-004', XYZ=0,0,0, SETPOINT=33.7222, QUANTITY='TIME', INITIAL_STATE=.FALSE., /
&DEVC ID='IGNITION_DEVC-25-004', CTRL_ID='IGNITION-CTRL-25-004', IOR=3, OUTPUT=.FALSE., QUANTITY='CONTROL', XYZ=0.0500,0.0500,0.0000, /
&DEVC ID='HRRPUA-25-004', IOR=3, QUANTITY='HRRPUA', SPEC_ID='PROPANE', XYZ=0.0500,0.0500,0.0000, /
&DEVC ID='IGNITION-TIME-25-004', NO_UPDATE_DEVC_ID='IGNITION_DEVC-25-004', OUTPUT=.FALSE., QUANTITY='TIME', XYZ=0.0500,0.0500,0.0000, /
&SURF ID='SAMPLE-50-004', EXTERNAL_FLUX=1., HEAT_TRANSFER_COEFFICIENT=0.0000, HEAT_TRANSFER_COEFFICIENT_BACK=10., HRRPUA=1., IGNITION_TEMPERATURE=20.0, MATL_ID(1:2,1)='SAMPLE','BACKING', RAMP_EF='IGNITION_RAMP-50-004', RAMP_Q='CONE-RAMP', REFERENCE_HEAT_FLUX=74.2643, REFERENCE_HEAT_FLUX_TIME_INTERVAL=1., REFERENCE_CONE_THICKNESS=0.00406049, THICKNESS(1:2)=0.00406049,0.01270000, /
&RAMP ID='IGNITION_RAMP-50-004', T=0.0, F=74.2643, /
&RAMP ID='IGNITION_RAMP-50-004', T=1.0, F=74.2643, /
&OBST ID='SAMPLE-50-004', SURF_ID='SAMPLE-50-004', XB=0.1000,0.2000,0.0000,0.1000,0.0000,0.0000,DEVC_ID='TIGN-50-004', /
&DEVC ID='WALL TEMPERATURE-50-004', INITIAL_STATE=.FALSE., IOR=3, OUTPUT=.FALSE., QUANTITY='WALL TEMPERATURE', SETPOINT=20.0, XYZ=0.1500,0.0500,0.0000, /
&CTRL ID='IGNITION-CTRL-50-004', FUNCTION_TYPE='ANY', INPUT_ID='WALL TEMPERATURE-50-004', /
&DEVC ID='TIGN-50-004', XYZ=0,0,0, SETPOINT=3.9701, QUANTITY='TIME', INITIAL_STATE=.FALSE., /
&DEVC ID='IGNITION_DEVC-50-004', CTRL_ID='IGNITION-CTRL-50-004', IOR=3, OUTPUT=.FALSE., QUANTITY='CONTROL', XYZ=0.1500,0.0500,0.0000, /
&DEVC ID='HRRPUA-50-004', IOR=3, QUANTITY='HRRPUA', SPEC_ID='PROPANE', XYZ=0.1500,0.0500,0.0000, /
&DEVC ID='IGNITION-TIME-50-004', NO_UPDATE_DEVC_ID='IGNITION_DEVC-50-004', OUTPUT=.FALSE., QUANTITY='TIME', XYZ=0.1500,0.0500,0.0000, /
&SURF ID='SAMPLE-75-004', EXTERNAL_FLUX=1., HEAT_TRANSFER_COEFFICIENT=0.0000, HEAT_TRANSFER_COEFFICIENT_BACK=10., HRRPUA=1., IGNITION_TEMPERATURE=20.0, MATL_ID(1:2,1)='SAMPLE','BACKING', RAMP_EF='IGNITION_RAMP-75-004', RAMP_Q='CONE-RAMP', REFERENCE_HEAT_FLUX=74.2643, REFERENCE_HEAT_FLUX_TIME_INTERVAL=1., REFERENCE_CONE_THICKNESS=0.00406049, THICKNESS(1:2)=0.00406049,0.01270000, /
&RAMP ID='IGNITION_RAMP-75-004', T=0.0, F=104.6405, /
&RAMP ID='IGNITION_RAMP-75-004', T=1.0, F=104.6405, /
&OBST ID='SAMPLE-75-004', SURF_ID='SAMPLE-75-004', XB=0.2000,0.3000,0.0000,0.1000,0.0000,0.0000,DEVC_ID='TIGN-75-004', /
&DEVC ID='WALL TEMPERATURE-75-004', INITIAL_STATE=.FALSE., IOR=3, OUTPUT=.FALSE., QUANTITY='WALL TEMPERATURE', SETPOINT=20.0, XYZ=0.2500,0.0500,0.0000, /
&CTRL ID='IGNITION-CTRL-75-004', FUNCTION_TYPE='ANY', INPUT_ID='WALL TEMPERATURE-75-004', /
&DEVC ID='TIGN-75-004', XYZ=0,0,0, SETPOINT=0.5000, QUANTITY='TIME', INITIAL_STATE=.FALSE., /
&DEVC ID='IGNITION_DEVC-75-004', CTRL_ID='IGNITION-CTRL-75-004', IOR=3, OUTPUT=.FALSE., QUANTITY='CONTROL', XYZ=0.2500,0.0500,0.0000, /
&DEVC ID='HRRPUA-75-004', IOR=3, QUANTITY='HRRPUA', SPEC_ID='PROPANE', XYZ=0.2500,0.0500,0.0000, /
&DEVC ID='IGNITION-TIME-75-004', NO_UPDATE_DEVC_ID='IGNITION_DEVC-75-004', OUTPUT=.FALSE., QUANTITY='TIME', XYZ=0.2500,0.0500,0.0000, /
