&HEAD CHID='JH_Phenolic_Resin_Fiberglass_Composite', /
&TIME DT=1., T_END=20000.0 /
&DUMP DT_CTRL=1.0, DT_DEVC=1.0, DT_HRR=1.0, SIG_FIGS=4, SIG_FIGS_EXP=2, /
&MISC SOLID_PHASE_ONLY=.TRUE., TMPA=27., /
&MESH ID='MESH', IJK=3,3,3, XB=0.,0.3,0.,0.3,0.,0.3, /
&REAC ID='PROPANE', FUEL='PROPANE', /
&MATL ID='BACKING', CONDUCTIVITY=0.10, DENSITY=65., EMISSIVITY=0.9, SPECIFIC_HEAT=1.14, /
&MATL ID='SAMPLE', CONDUCTIVITY=0.3460, DENSITY=1846.0, EMISSIVITY=0.8883, SPECIFIC_HEAT=1.2900, /
&RAMP ID='CONE-RAMP', T=0.0000, F=3.7, /
&RAMP ID='CONE-RAMP', T=3.7000, F=7.7, /
&RAMP ID='CONE-RAMP', T=7.5000, F=13.1, /
&RAMP ID='CONE-RAMP', T=11.2000, F=19.0, /
&RAMP ID='CONE-RAMP', T=15.0000, F=24.9, /
&RAMP ID='CONE-RAMP', T=18.7000, F=30.1, /
&RAMP ID='CONE-RAMP', T=22.5000, F=33.6, /
&RAMP ID='CONE-RAMP', T=26.2000, F=35.8, /
&RAMP ID='CONE-RAMP', T=30.0000, F=37.9, /
&RAMP ID='CONE-RAMP', T=33.7000, F=38.6, /
&RAMP ID='CONE-RAMP', T=37.5000, F=38.3, /
&RAMP ID='CONE-RAMP', T=41.2000, F=38.3, /
&RAMP ID='CONE-RAMP', T=45.0000, F=38.7, /
&RAMP ID='CONE-RAMP', T=48.7000, F=38.1, /
&RAMP ID='CONE-RAMP', T=52.5000, F=37.8, /
&RAMP ID='CONE-RAMP', T=56.2000, F=37.6, /
&RAMP ID='CONE-RAMP', T=60.0000, F=38.2, /
&RAMP ID='CONE-RAMP', T=63.7000, F=38.6, /
&RAMP ID='CONE-RAMP', T=67.5000, F=39.1, /
&RAMP ID='CONE-RAMP', T=71.2000, F=40.3, /
! ... 190 like lines cut
&SURF ID='SAMPLE-35-003', EXTERNAL_FLUX=1., HEAT_TRANSFER_COEFFICIENT=15.0000, HEAT_TRANSFER_COEFFICIENT_BACK=10., HRRPUA=1., IGNITION_TEMPERATURE=20.0, MATL_ID(1:2,1)='SAMPLE','BACKING', RAMP_EF='IGNITION_RAMP-35-003', RAMP_Q='CONE-RAMP', REFERENCE_HEAT_FLUX=75.0000, REFERENCE_HEAT_FLUX_TIME_INTERVAL=1., REFERENCE_CONE_THICKNESS=0.00327000, THICKNESS(1:2)=0.00327000,0.01270000, /
&RAMP ID='IGNITION_RAMP-35-003', T=0.0, F=60.0000, /
&RAMP ID='IGNITION_RAMP-35-003', T=1.0, F=60.0000, /
&OBST ID='SAMPLE-35-003', SURF_ID='SAMPLE-35-003', XB=0.0000,0.1000,0.0000,0.1000,0.0000,0.0000,DEVC_ID='TIGN-35-003', /
&DEVC ID='WALL TEMPERATURE-35-003', INITIAL_STATE=.FALSE., IOR=3, OUTPUT=.FALSE., QUANTITY='WALL TEMPERATURE', SETPOINT=20.0, XYZ=0.0500,0.0500,0.0000, /
&CTRL ID='IGNITION-CTRL-35-003', FUNCTION_TYPE='ANY', INPUT_ID='WALL TEMPERATURE-35-003', /
&DEVC ID='TIGN-35-003', XYZ=0,0,0, SETPOINT=581.3000, QUANTITY='TIME', INITIAL_STATE=.FALSE., /
&DEVC ID='IGNITION_DEVC-35-003', CTRL_ID='IGNITION-CTRL-35-003', IOR=3, OUTPUT=.FALSE., QUANTITY='CONTROL', XYZ=0.0500,0.0500,0.0000, /
&DEVC ID='HRRPUA-35-003', IOR=3, QUANTITY='HRRPUA', SPEC_ID='PROPANE', XYZ=0.0500,0.0500,0.0000, /
&DEVC ID='IGNITION-TIME-35-003', NO_UPDATE_DEVC_ID='IGNITION_DEVC-35-003', OUTPUT=.FALSE., QUANTITY='TIME', XYZ=0.0500,0.0500,0.0000, /
&SURF ID='SAMPLE-50-003', EXTERNAL_FLUX=1., HEAT_TRANSFER_COEFFICIENT=15.0000, HEAT_TRANSFER_COEFFICIENT_BACK=10., HRRPUA=1., IGNITION_TEMPERATURE=20.0, MATL_ID(1:2,1)='SAMPLE','BACKING', RAMP_EF='IGNITION_RAMP-50-003', RAMP_Q='CONE-RAMP', REFERENCE_HEAT_FLUX=75.0000, REFERENCE_HEAT_FLUX_TIME_INTERVAL=1., REFERENCE_CONE_THICKNESS=0.00327000, THICKNESS(1:2)=0.00327000,0.01270000, /
&RAMP ID='IGNITION_RAMP-50-003', T=0.0, F=75.0000, /
&RAMP ID='IGNITION_RAMP-50-003', T=1.0, F=75.0000, /
&OBST ID='SAMPLE-50-003', SURF_ID='SAMPLE-50-003', XB=0.1000,0.2000,0.0000,0.1000,0.0000,0.0000,DEVC_ID='TIGN-50-003', /
&DEVC ID='WALL TEMPERATURE-50-003', INITIAL_STATE=.FALSE., IOR=3, OUTPUT=.FALSE., QUANTITY='WALL TEMPERATURE', SETPOINT=20.0, XYZ=0.1500,0.0500,0.0000, /
&CTRL ID='IGNITION-CTRL-50-003', FUNCTION_TYPE='ANY', INPUT_ID='WALL TEMPERATURE-50-003', /
&DEVC ID='TIGN-50-003', XYZ=0,0,0, SETPOINT=123.8000, QUANTITY='TIME', INITIAL_STATE=.FALSE., /
&DEVC ID='IGNITION_DEVC-50-003', CTRL_ID='IGNITION-CTRL-50-003', IOR=3, OUTPUT=.FALSE., QUANTITY='CONTROL', XYZ=0.1500,0.0500,0.0000, /
&DEVC ID='HRRPUA-50-003', IOR=3, QUANTITY='HRRPUA', SPEC_ID='PROPANE', XYZ=0.1500,0.0500,0.0000, /
&DEVC ID='IGNITION-TIME-50-003', NO_UPDATE_DEVC_ID='IGNITION_DEVC-50-003', OUTPUT=.FALSE., QUANTITY='TIME', XYZ=0.1500,0.0500,0.0000, /
&SURF ID='SAMPLE-75-003', EXTERNAL_FLUX=1., HEAT_TRANSFER_COEFFICIENT=15.0000, HEAT_TRANSFER_COEFFICIENT_BACK=10., HRRPUA=1., IGNITION_TEMPERATURE=20.0, MATL_ID(1:2,1)='SAMPLE','BACKING', RAMP_EF='IGNITION_RAMP-75-003', RAMP_Q='CONE-RAMP', REFERENCE_HEAT_FLUX=75.0000, REFERENCE_HEAT_FLUX_TIME_INTERVAL=1., REFERENCE_CONE_THICKNESS=0.00327000, THICKNESS(1:2)=0.00327000,0.01270000, /
&RAMP ID='IGNITION_RAMP-75-003', T=0.0, F=100.0000, /
&RAMP ID='IGNITION_RAMP-75-003', T=1.0, F=100.0000, /
&OBST ID='SAMPLE-75-003', SURF_ID='SAMPLE-75-003', XB=0.2000,0.3000,0.0000,0.1000,0.0000,0.0000,DEVC_ID='TIGN-75-003', /
&DEVC ID='WALL TEMPERATURE-75-003', INITIAL_STATE=.FALSE., IOR=3, OUTPUT=.FALSE., QUANTITY='WALL TEMPERATURE', SETPOINT=20.0, XYZ=0.2500,0.0500,0.0000, /
&CTRL ID='IGNITION-CTRL-75-003', FUNCTION_TYPE='ANY', INPUT_ID='WALL TEMPERATURE-75-003', /
&DEVC ID='TIGN-75-003', XYZ=0,0,0, SETPOINT=37.5000, QUANTITY='TIME', INITIAL_STATE=.FALSE., /
&DEVC ID='IGNITION_DEVC-75-003', CTRL_ID='IGNITION-CTRL-75-003', IOR=3, OUTPUT=.FALSE., QUANTITY='CONTROL', XYZ=0.2500,0.0500,0.0000, /
&DEVC ID='HRRPUA-75-003', IOR=3, QUANTITY='HRRPUA', SPEC_ID='PROPANE', XYZ=0.2500,0.0500,0.0000, /
&DEVC ID='IGNITION-TIME-75-003', NO_UPDATE_DEVC_ID='IGNITION_DEVC-75-003', OUTPUT=.FALSE., QUANTITY='TIME', XYZ=0.2500,0.0500,0.0000, /
