&HEAD CHID='JH_FRP', /
&TIME DT=1., T_END=20000.0 /
&DUMP DT_CTRL=1.0, DT_DEVC=1.0, DT_HRR=1.0, SIG_FIGS=4, SIG_FIGS_EXP=2, /
&MISC SOLID_PHASE_ONLY=.TRUE., TMPA=27., /
&MESH ID='MESH', IJK=3,3,3, XB=0.,0.3,0.,0.3,0.,0.3, /
&REAC ID='PROPANE', FUEL='PROPANE', /
&MATL ID='BACKING', CONDUCTIVITY=0.10, DENSITY=65., EMISSIVITY=0.9, SPECIFIC_HEAT=1.14, /
&MATL ID='SAMPLE', CONDUCTIVITY=0.3901, DENSITY=1897.0, EMISSIVITY=0.9500, SPECIFIC_HEAT=1.4121, /
&RAMP ID='CONE-RAMP', T=0.0000, F=0.0, /
&RAMP ID='CONE-RAMP', T=7.5000, F=88.9, /
&RAMP ID='CONE-RAMP', T=15.0000, F=182.6, /
&RAMP ID='CONE-RAMP', T=22.5000, F=215.2, /
&RAMP ID='CONE-RAMP', T=30.0000, F=243.8, /
&RAMP ID='CONE-RAMP', T=37.5000, F=231.0, /
&RAMP ID='CONE-RAMP', T=45.0000, F=215.2, /
&RAMP ID='CONE-RAMP', T=52.5000, F=204.6, /
&RAMP ID='CONE-RAMP', T=60.0000, F=194.5, /
&RAMP ID='CONE-RAMP', T=67.5000, F=182.9, /
&RAMP ID='CONE-RAMP', T=75.0000, F=171.1, /
&RAMP ID='CONE-RAMP', T=82.5000, F=165.6, /
&RAMP ID='CONE-RAMP', T=90.0000, F=160.8, /
&RAMP ID='CONE-RAMP', T=97.5000, F=154.7, /
&RAMP ID='CONE-RAMP', T=105.0000, F=148.6, /
&RAMP ID='CONE-RAMP', T=112.5000, F=145.2, /
&RAMP ID='CONE-RAMP', T=120.0000, F=142.2, /
&RAMP ID='CONE-RAMP', T=127.5000, F=142.3, /
&RAMP ID='CONE-RAMP', T=135.0000, F=142.9, /
&RAMP ID='CONE-RAMP', T=142.5000, F=141.8, /
! ... 275 like lines cut
&SURF ID='SAMPLE-25-012', EXTERNAL_FLUX=1., HEAT_TRANSFER_COEFFICIENT=15.0000, HEAT_TRANSFER_COEFFICIENT_BACK=10., HRRPUA=1., IGNITION_TEMPERATURE=20.0, MATL_ID(1:2,1)='SAMPLE','BACKING', RAMP_EF='IGNITION_RAMP-25-012', RAMP_Q='CONE-RAMP', REFERENCE_HEAT_FLUX=65.9611, REFERENCE_HEAT_FLUX_TIME_INTERVAL=1., REFERENCE_CONE_THICKNESS=0.01270000, THICKNESS(1:2)=0.01270000,0.01270000, /
&RAMP ID='IGNITION_RAMP-25-012', T=0.0, F=34.5085, /
&RAMP ID='IGNITION_RAMP-25-012', T=1.0, F=34.5085, /
&OBST ID='SAMPLE-25-012', SURF_ID='SAMPLE-25-012', XB=0.0000,0.1000,0.0000,0.1000,0.0000,0.0000,DEVC_ID='TIGN-25-012', /
&DEVC ID='WALL TEMPERATURE-25-012', INITIAL_STATE=.FALSE., IOR=3, OUTPUT=.FALSE., QUANTITY='WALL TEMPERATURE', SETPOINT=20.0, XYZ=0.0500,0.0500,0.0000, /
&CTRL ID='IGNITION-CTRL-25-012', FUNCTION_TYPE='ANY', INPUT_ID='WALL TEMPERATURE-25-012', /
&DEVC ID='TIGN-25-012', XYZ=0,0,0, SETPOINT=525.0000, QUANTITY='TIME', INITIAL_STATE=.FALSE., /
&DEVC ID='IGNITION_DEVC-25-012', CTRL_ID='IGNITION-CTRL-25-012', IOR=3, OUTPUT=.FALSE., QUANTITY='CONTROL', XYZ=0.0500,0.0500,0.0000, /
&DEVC ID='HRRPUA-25-012', IOR=3, QUANTITY='HRRPUA', SPEC_ID='PROPANE', XYZ=0.0500,0.0500,0.0000, /
&DEVC ID='IGNITION-TIME-25-012', NO_UPDATE_DEVC_ID='IGNITION_DEVC-25-012', OUTPUT=.FALSE., QUANTITY='TIME', XYZ=0.0500,0.0500,0.0000, /
&SURF ID='SAMPLE-50-012', EXTERNAL_FLUX=1., HEAT_TRANSFER_COEFFICIENT=15.0000, HEAT_TRANSFER_COEFFICIENT_BACK=10., HRRPUA=1., IGNITION_TEMPERATURE=20.0, MATL_ID(1:2,1)='SAMPLE','BACKING', RAMP_EF='IGNITION_RAMP-50-012', RAMP_Q='CONE-RAMP', REFERENCE_HEAT_FLUX=65.9611, REFERENCE_HEAT_FLUX_TIME_INTERVAL=1., REFERENCE_CONE_THICKNESS=0.01270000, THICKNESS(1:2)=0.01270000,0.01270000, /
&RAMP ID='IGNITION_RAMP-50-012', T=0.0, F=65.9611, /
&RAMP ID='IGNITION_RAMP-50-012', T=1.0, F=65.9611, /
&OBST ID='SAMPLE-50-012', SURF_ID='SAMPLE-50-012', XB=0.1000,0.2000,0.0000,0.1000,0.0000,0.0000,DEVC_ID='TIGN-50-012', /
&DEVC ID='WALL TEMPERATURE-50-012', INITIAL_STATE=.FALSE., IOR=3, OUTPUT=.FALSE., QUANTITY='WALL TEMPERATURE', SETPOINT=20.0, XYZ=0.1500,0.0500,0.0000, /
&CTRL ID='IGNITION-CTRL-50-012', FUNCTION_TYPE='ANY', INPUT_ID='WALL TEMPERATURE-50-012', /
&DEVC ID='TIGN-50-012', XYZ=0,0,0, SETPOINT=90.0000, QUANTITY='TIME', INITIAL_STATE=.FALSE., /
&DEVC ID='IGNITION_DEVC-50-012', CTRL_ID='IGNITION-CTRL-50-012', IOR=3, OUTPUT=.FALSE., QUANTITY='CONTROL', XYZ=0.1500,0.0500,0.0000, /
&DEVC ID='HRRPUA-50-012', IOR=3, QUANTITY='HRRPUA', SPEC_ID='PROPANE', XYZ=0.1500,0.0500,0.0000, /
&DEVC ID='IGNITION-TIME-50-012', NO_UPDATE_DEVC_ID='IGNITION_DEVC-50-012', OUTPUT=.FALSE., QUANTITY='TIME', XYZ=0.1500,0.0500,0.0000, /
&SURF ID='SAMPLE-70-012', EXTERNAL_FLUX=1., HEAT_TRANSFER_COEFFICIENT=15.0000, HEAT_TRANSFER_COEFFICIENT_BACK=10., HRRPUA=1., IGNITION_TEMPERATURE=20.0, MATL_ID(1:2,1)='SAMPLE','BACKING', RAMP_EF='IGNITION_RAMP-70-012', RAMP_Q='CONE-RAMP', REFERENCE_HEAT_FLUX=65.9611, REFERENCE_HEAT_FLUX_TIME_INTERVAL=1., REFERENCE_CONE_THICKNESS=0.01270000, THICKNESS(1:2)=0.01270000,0.01270000, /
&RAMP ID='IGNITION_RAMP-70-012', T=0.0, F=89.6518, /
&RAMP ID='IGNITION_RAMP-70-012', T=1.0, F=89.6518, /
&OBST ID='SAMPLE-70-012', SURF_ID='SAMPLE-70-012', XB=0.2000,0.3000,0.0000,0.1000,0.0000,0.0000,DEVC_ID='TIGN-70-012', /
&DEVC ID='WALL TEMPERATURE-70-012', INITIAL_STATE=.FALSE., IOR=3, OUTPUT=.FALSE., QUANTITY='WALL TEMPERATURE', SETPOINT=20.0, XYZ=0.2500,0.0500,0.0000, /
&CTRL ID='IGNITION-CTRL-70-012', FUNCTION_TYPE='ANY', INPUT_ID='WALL TEMPERATURE-70-012', /
&DEVC ID='TIGN-70-012', XYZ=0,0,0, SETPOINT=45.0000, QUANTITY='TIME', INITIAL_STATE=.FALSE., /
&DEVC ID='IGNITION_DEVC-70-012', CTRL_ID='IGNITION-CTRL-70-012', IOR=3, OUTPUT=.FALSE., QUANTITY='CONTROL', XYZ=0.2500,0.0500,0.0000, /
&DEVC ID='HRRPUA-70-012', IOR=3, QUANTITY='HRRPUA', SPEC_ID='PROPANE', XYZ=0.2500,0.0500,0.0000, /
&DEVC ID='IGNITION-TIME-70-012', NO_UPDATE_DEVC_ID='IGNITION_DEVC-70-012', OUTPUT=.FALSE., QUANTITY='TIME', XYZ=0.2500,0.0500,0.0000, /
