&HEAD CHID='FSRI_Vinyl_Siding', /
&TIME DT=1., T_END=20000.0 /
&DUMP DT_CTRL=1.0, DT_DEVC=1.0, DT_HRR=1.0, SIG_FIGS=4, SIG_FIGS_EXP=2, /
&MISC SOLID_PHASE_ONLY=.TRUE., TMPA=27., /
&MESH ID='MESH', IJK=3,3,3, XB=0.,0.3,0.,0.3,0.,0.3, /
&REAC ID='PROPANE', FUEL='PROPANE', /
&MATL ID='BACKING', CONDUCTIVITY=0.10, DENSITY=65., EMISSIVITY=0.9, SPECIFIC_HEAT=1.14, /
&MATL ID='SAMPLE', CONDUCTIVITY=0.0980, DENSITY=1376.7, EMISSIVITY=1.0000, SPECIFIC_HEAT=1096.0000, /
&RAMP ID='CONE-RAMP', T=0.0000, F=5.4, /
&RAMP ID='CONE-RAMP', T=0.9696, F=14.2, /
&RAMP ID='CONE-RAMP', T=1.9392, F=25.6, /
&RAMP ID='CONE-RAMP', T=2.9087, F=39.3, /
&RAMP ID='CONE-RAMP', T=3.8783, F=55.2, /
&RAMP ID='CONE-RAMP', T=4.8479, F=72.9, /
&RAMP ID='CONE-RAMP', T=5.8175, F=92.1, /
&RAMP ID='CONE-RAMP', T=6.7871, F=112.3, /
&RAMP ID='CONE-RAMP', T=7.7567, F=133.4, /
&RAMP ID='CONE-RAMP', T=8.7262, F=155.2, /
&RAMP ID='CONE-RAMP', T=9.6958, F=176.2, /
&RAMP ID='CONE-RAMP', T=10.6654, F=191.3, /
&RAMP ID='CONE-RAMP', T=11.6350, F=204.5, /
&RAMP ID='CONE-RAMP', T=12.6046, F=215.4, /
&RAMP ID='CONE-RAMP', T=13.5741, F=223.9, /
&RAMP ID='CONE-RAMP', T=14.5437, F=230.4, /
&RAMP ID='CONE-RAMP', T=15.5133, F=235.1, /
&RAMP ID='CONE-RAMP', T=16.4829, F=237.9, /
&RAMP ID='CONE-RAMP', T=17.4525, F=239.3, /
&RAMP ID='CONE-RAMP', T=18.4221, F=239.5, /
! ... 244 like lines cut
&SURF ID='SAMPLE-25-001', EXTERNAL_FLUX=1., HEAT_TRANSFER_COEFFICIENT=0.0000, HEAT_TRANSFER_COEFFICIENT_BACK=10., HRRPUA=1., IGNITION_TEMPERATURE=20.0, MATL_ID(1:2,1)='SAMPLE','BACKING', RAMP_EF='IGNITION_RAMP-25-001', RAMP_Q='CONE-RAMP', REFERENCE_HEAT_FLUX=75.0000, REFERENCE_HEAT_FLUX_TIME_INTERVAL=1., REFERENCE_CONE_THICKNESS=0.00116683, THICKNESS(1:2)=0.00116683,0.01270000, /
&RAMP ID='IGNITION_RAMP-25-001', T=0.0, F=50.0000, /
&RAMP ID='IGNITION_RAMP-25-001', T=1.0, F=50.0000, /
&OBST ID='SAMPLE-25-001', SURF_ID='SAMPLE-25-001', XB=0.0000,0.1000,0.0000,0.1000,0.0000,0.0000,DEVC_ID='TIGN-25-001', /
&DEVC ID='WALL TEMPERATURE-25-001', INITIAL_STATE=.FALSE., IOR=3, OUTPUT=.FALSE., QUANTITY='WALL TEMPERATURE', SETPOINT=20.0, XYZ=0.0500,0.0500,0.0000, /
&CTRL ID='IGNITION-CTRL-25-001', FUNCTION_TYPE='ANY', INPUT_ID='WALL TEMPERATURE-25-001', /
&DEVC ID='TIGN-25-001', XYZ=0,0,0, SETPOINT=190.9701, QUANTITY='TIME', INITIAL_STATE=.FALSE., /
&DEVC ID='IGNITION_DEVC-25-001', CTRL_ID='IGNITION-CTRL-25-001', IOR=3, OUTPUT=.FALSE., QUANTITY='CONTROL', XYZ=0.0500,0.0500,0.0000, /
&DEVC ID='HRRPUA-25-001', IOR=3, QUANTITY='HRRPUA', SPEC_ID='PROPANE', XYZ=0.0500,0.0500,0.0000, /
&DEVC ID='IGNITION-TIME-25-001', NO_UPDATE_DEVC_ID='IGNITION_DEVC-25-001', OUTPUT=.FALSE., QUANTITY='TIME', XYZ=0.0500,0.0500,0.0000, /
&SURF ID='SAMPLE-50-001', EXTERNAL_FLUX=1., HEAT_TRANSFER_COEFFICIENT=0.0000, HEAT_TRANSFER_COEFFICIENT_BACK=10., HRRPUA=1., IGNITION_TEMPERATURE=20.0, MATL_ID(1:2,1)='SAMPLE','BACKING', RAMP_EF='IGNITION_RAMP-50-001', RAMP_Q='CONE-RAMP', REFERENCE_HEAT_FLUX=75.0000, REFERENCE_HEAT_FLUX_TIME_INTERVAL=1., REFERENCE_CONE_THICKNESS=0.00116683, THICKNESS(1:2)=0.00116683,0.01270000, /
&RAMP ID='IGNITION_RAMP-50-001', T=0.0, F=75.0000, /
&RAMP ID='IGNITION_RAMP-50-001', T=1.0, F=75.0000, /
&OBST ID='SAMPLE-50-001', SURF_ID='SAMPLE-50-001', XB=0.1000,0.2000,0.0000,0.1000,0.0000,0.0000,DEVC_ID='TIGN-50-001', /
&DEVC ID='WALL TEMPERATURE-50-001', INITIAL_STATE=.FALSE., IOR=3, OUTPUT=.FALSE., QUANTITY='WALL TEMPERATURE', SETPOINT=20.0, XYZ=0.1500,0.0500,0.0000, /
&CTRL ID='IGNITION-CTRL-50-001', FUNCTION_TYPE='ANY', INPUT_ID='WALL TEMPERATURE-50-001', /
&DEVC ID='TIGN-50-001', XYZ=0,0,0, SETPOINT=28.5000, QUANTITY='TIME', INITIAL_STATE=.FALSE., /
&DEVC ID='IGNITION_DEVC-50-001', CTRL_ID='IGNITION-CTRL-50-001', IOR=3, OUTPUT=.FALSE., QUANTITY='CONTROL', XYZ=0.1500,0.0500,0.0000, /
&DEVC ID='HRRPUA-50-001', IOR=3, QUANTITY='HRRPUA', SPEC_ID='PROPANE', XYZ=0.1500,0.0500,0.0000, /
&DEVC ID='IGNITION-TIME-50-001', NO_UPDATE_DEVC_ID='IGNITION_DEVC-50-001', OUTPUT=.FALSE., QUANTITY='TIME', XYZ=0.1500,0.0500,0.0000, /
&SURF ID='SAMPLE-75-001', EXTERNAL_FLUX=1., HEAT_TRANSFER_COEFFICIENT=0.0000, HEAT_TRANSFER_COEFFICIENT_BACK=10., HRRPUA=1., IGNITION_TEMPERATURE=20.0, MATL_ID(1:2,1)='SAMPLE','BACKING', RAMP_EF='IGNITION_RAMP-75-001', RAMP_Q='CONE-RAMP', REFERENCE_HEAT_FLUX=75.0000, REFERENCE_HEAT_FLUX_TIME_INTERVAL=1., REFERENCE_CONE_THICKNESS=0.00116683, THICKNESS(1:2)=0.00116683,0.01270000, /
&RAMP ID='IGNITION_RAMP-75-001', T=0.0, F=100.0000, /
&RAMP ID='IGNITION_RAMP-75-001', T=1.0, F=100.0000, /
&OBST ID='SAMPLE-75-001', SURF_ID='SAMPLE-75-001', XB=0.2000,0.3000,0.0000,0.1000,0.0000,0.0000,DEVC_ID='TIGN-75-001', /
&DEVC ID='WALL TEMPERATURE-75-001', INITIAL_STATE=.FALSE., IOR=3, OUTPUT=.FALSE., QUANTITY='WALL TEMPERATURE', SETPOINT=20.0, XYZ=0.2500,0.0500,0.0000, /
&CTRL ID='IGNITION-CTRL-75-001', FUNCTION_TYPE='ANY', INPUT_ID='WALL TEMPERATURE-75-001', /
&DEVC ID='TIGN-75-001', XYZ=0,0,0, SETPOINT=12.7500, QUANTITY='TIME', INITIAL_STATE=.FALSE., /
&DEVC ID='IGNITION_DEVC-75-001', CTRL_ID='IGNITION-CTRL-75-001', IOR=3, OUTPUT=.FALSE., QUANTITY='CONTROL', XYZ=0.2500,0.0500,0.0000, /
&DEVC ID='HRRPUA-75-001', IOR=3, QUANTITY='HRRPUA', SPEC_ID='PROPANE', XYZ=0.2500,0.0500,0.0000, /
&DEVC ID='IGNITION-TIME-75-001', NO_UPDATE_DEVC_ID='IGNITION_DEVC-75-001', OUTPUT=.FALSE., QUANTITY='TIME', XYZ=0.2500,0.0500,0.0000, /
