&HEAD CHID='FSRI_EPDM_Membrane', /
&TIME DT=1., T_END=20000.0 /
&DUMP DT_CTRL=1.0, DT_DEVC=1.0, DT_HRR=1.0, SIG_FIGS=4, SIG_FIGS_EXP=2, /
&MISC SOLID_PHASE_ONLY=.TRUE., TMPA=27., /
&MESH ID='MESH', IJK=3,3,3, XB=0.,0.3,0.,0.3,0.,0.3, /
&REAC ID='PROPANE', FUEL='PROPANE', /
&MATL ID='BACKING', CONDUCTIVITY=0.10, DENSITY=65., EMISSIVITY=0.9, SPECIFIC_HEAT=1.14, /
&MATL ID='SAMPLE', CONDUCTIVITY=0.1440, DENSITY=1200.3, EMISSIVITY=1.0000, SPECIFIC_HEAT=1459.0000, /
&RAMP ID='CONE-RAMP', T=0.0000, F=33.2, /
&RAMP ID='CONE-RAMP', T=1.8257, F=61.4, /
&RAMP ID='CONE-RAMP', T=3.6513, F=99.6, /
&RAMP ID='CONE-RAMP', T=5.4770, F=145.4, /
&RAMP ID='CONE-RAMP', T=7.3026, F=194.9, /
&RAMP ID='CONE-RAMP', T=9.1283, F=246.2, /
&RAMP ID='CONE-RAMP', T=10.9539, F=295.6, /
&RAMP ID='CONE-RAMP', T=12.7796, F=340.2, /
&RAMP ID='CONE-RAMP', T=14.6053, F=379.1, /
&RAMP ID='CONE-RAMP', T=16.4309, F=412.2, /
&RAMP ID='CONE-RAMP', T=18.2566, F=439.5, /
&RAMP ID='CONE-RAMP', T=20.0822, F=460.8, /
&RAMP ID='CONE-RAMP', T=21.9079, F=477.6, /
&RAMP ID='CONE-RAMP', T=23.7336, F=490.0, /
&RAMP ID='CONE-RAMP', T=25.5592, F=498.9, /
&RAMP ID='CONE-RAMP', T=27.3849, F=504.8, /
&RAMP ID='CONE-RAMP', T=29.2105, F=507.3, /
&RAMP ID='CONE-RAMP', T=31.0362, F=507.0, /
&RAMP ID='CONE-RAMP', T=32.8618, F=504.0, /
&RAMP ID='CONE-RAMP', T=34.6875, F=499.8, /
! ... 588 like lines cut
&SURF ID='SAMPLE-25-007', EXTERNAL_FLUX=1., HEAT_TRANSFER_COEFFICIENT=15.0000, HEAT_TRANSFER_COEFFICIENT_BACK=10., HRRPUA=1., IGNITION_TEMPERATURE=20.0, MATL_ID(1:2,1)='SAMPLE','BACKING', RAMP_EF='IGNITION_RAMP-25-007', RAMP_Q='CONE-RAMP', REFERENCE_HEAT_FLUX=75.0000, REFERENCE_HEAT_FLUX_TIME_INTERVAL=1., REFERENCE_CONE_THICKNESS=0.00777970, THICKNESS(1:2)=0.00777970,0.01270000, /
&RAMP ID='IGNITION_RAMP-25-007', T=0.0, F=50.0000, /
&RAMP ID='IGNITION_RAMP-25-007', T=1.0, F=50.0000, /
&OBST ID='SAMPLE-25-007', SURF_ID='SAMPLE-25-007', XB=0.0000,0.1000,0.0000,0.1000,0.0000,0.0000,DEVC_ID='TIGN-25-007', /
&DEVC ID='WALL TEMPERATURE-25-007', INITIAL_STATE=.FALSE., IOR=3, OUTPUT=.FALSE., QUANTITY='WALL TEMPERATURE', SETPOINT=20.0, XYZ=0.0500,0.0500,0.0000, /
&CTRL ID='IGNITION-CTRL-25-007', FUNCTION_TYPE='ANY', INPUT_ID='WALL TEMPERATURE-25-007', /
&DEVC ID='TIGN-25-007', XYZ=0,0,0, SETPOINT=132.0052, QUANTITY='TIME', INITIAL_STATE=.FALSE., /
&DEVC ID='IGNITION_DEVC-25-007', CTRL_ID='IGNITION-CTRL-25-007', IOR=3, OUTPUT=.FALSE., QUANTITY='CONTROL', XYZ=0.0500,0.0500,0.0000, /
&DEVC ID='HRRPUA-25-007', IOR=3, QUANTITY='HRRPUA', SPEC_ID='PROPANE', XYZ=0.0500,0.0500,0.0000, /
&DEVC ID='IGNITION-TIME-25-007', NO_UPDATE_DEVC_ID='IGNITION_DEVC-25-007', OUTPUT=.FALSE., QUANTITY='TIME', XYZ=0.0500,0.0500,0.0000, /
&SURF ID='SAMPLE-50-007', EXTERNAL_FLUX=1., HEAT_TRANSFER_COEFFICIENT=15.0000, HEAT_TRANSFER_COEFFICIENT_BACK=10., HRRPUA=1., IGNITION_TEMPERATURE=20.0, MATL_ID(1:2,1)='SAMPLE','BACKING', RAMP_EF='IGNITION_RAMP-50-007', RAMP_Q='CONE-RAMP', REFERENCE_HEAT_FLUX=75.0000, REFERENCE_HEAT_FLUX_TIME_INTERVAL=1., REFERENCE_CONE_THICKNESS=0.00777970, THICKNESS(1:2)=0.00777970,0.01270000, /
&RAMP ID='IGNITION_RAMP-50-007', T=0.0, F=75.0000, /
&RAMP ID='IGNITION_RAMP-50-007', T=1.0, F=75.0000, /
&OBST ID='SAMPLE-50-007', SURF_ID='SAMPLE-50-007', XB=0.1000,0.2000,0.0000,0.1000,0.0000,0.0000,DEVC_ID='TIGN-50-007', /
&DEVC ID='WALL TEMPERATURE-50-007', INITIAL_STATE=.FALSE., IOR=3, OUTPUT=.FALSE., QUANTITY='WALL TEMPERATURE', SETPOINT=20.0, XYZ=0.1500,0.0500,0.0000, /
&CTRL ID='IGNITION-CTRL-50-007', FUNCTION_TYPE='ANY', INPUT_ID='WALL TEMPERATURE-50-007', /
&DEVC ID='TIGN-50-007', XYZ=0,0,0, SETPOINT=35.3257, QUANTITY='TIME', INITIAL_STATE=.FALSE., /
&DEVC ID='IGNITION_DEVC-50-007', CTRL_ID='IGNITION-CTRL-50-007', IOR=3, OUTPUT=.FALSE., QUANTITY='CONTROL', XYZ=0.1500,0.0500,0.0000, /
&DEVC ID='HRRPUA-50-007', IOR=3, QUANTITY='HRRPUA', SPEC_ID='PROPANE', XYZ=0.1500,0.0500,0.0000, /
&DEVC ID='IGNITION-TIME-50-007', NO_UPDATE_DEVC_ID='IGNITION_DEVC-50-007', OUTPUT=.FALSE., QUANTITY='TIME', XYZ=0.1500,0.0500,0.0000, /
&SURF ID='SAMPLE-75-007', EXTERNAL_FLUX=1., HEAT_TRANSFER_COEFFICIENT=15.0000, HEAT_TRANSFER_COEFFICIENT_BACK=10., HRRPUA=1., IGNITION_TEMPERATURE=20.0, MATL_ID(1:2,1)='SAMPLE','BACKING', RAMP_EF='IGNITION_RAMP-75-007', RAMP_Q='CONE-RAMP', REFERENCE_HEAT_FLUX=75.0000, REFERENCE_HEAT_FLUX_TIME_INTERVAL=1., REFERENCE_CONE_THICKNESS=0.00777970, THICKNESS(1:2)=0.00777970,0.01270000, /
&RAMP ID='IGNITION_RAMP-75-007', T=0.0, F=100.0000, /
&RAMP ID='IGNITION_RAMP-75-007', T=1.0, F=100.0000, /
&OBST ID='SAMPLE-75-007', SURF_ID='SAMPLE-75-007', XB=0.2000,0.3000,0.0000,0.1000,0.0000,0.0000,DEVC_ID='TIGN-75-007', /
&DEVC ID='WALL TEMPERATURE-75-007', INITIAL_STATE=.FALSE., IOR=3, OUTPUT=.FALSE., QUANTITY='WALL TEMPERATURE', SETPOINT=20.0, XYZ=0.2500,0.0500,0.0000, /
&CTRL ID='IGNITION-CTRL-75-007', FUNCTION_TYPE='ANY', INPUT_ID='WALL TEMPERATURE-75-007', /
&DEVC ID='TIGN-75-007', XYZ=0,0,0, SETPOINT=11.3750, QUANTITY='TIME', INITIAL_STATE=.FALSE., /
&DEVC ID='IGNITION_DEVC-75-007', CTRL_ID='IGNITION-CTRL-75-007', IOR=3, OUTPUT=.FALSE., QUANTITY='CONTROL', XYZ=0.2500,0.0500,0.0000, /
&DEVC ID='HRRPUA-75-007', IOR=3, QUANTITY='HRRPUA', SPEC_ID='PROPANE', XYZ=0.2500,0.0500,0.0000, /
&DEVC ID='IGNITION-TIME-75-007', NO_UPDATE_DEVC_ID='IGNITION_DEVC-75-007', OUTPUT=.FALSE., QUANTITY='TIME', XYZ=0.2500,0.0500,0.0000, /
