&HEAD CHID='FSRI_Wood_Stud', /
&TIME DT=1., T_END=7276.9 /
&DUMP DT_CTRL=1.0, DT_DEVC=1.0, DT_HRR=1.0, SIG_FIGS=4, SIG_FIGS_EXP=2, /
&MISC SOLID_PHASE_ONLY=.TRUE., TMPA=27., /
&MESH ID='MESH', IJK=3,3,3, XB=0.,0.3,0.,0.3,0.,0.3, /
&REAC ID='PROPANE', FUEL='PROPANE', /
&MATL ID='BACKING', CONDUCTIVITY=0.10, DENSITY=65., EMISSIVITY=0.9, SPECIFIC_HEAT=1.14, /
&MATL ID='SAMPLE', CONDUCTIVITY=0.1000, DENSITY=379.0, EMISSIVITY=1.0000, SPECIFIC_HEAT=1469.0000, /
&RAMP ID='CONE-RAMP', T=0.0000, F=44.0, /
&RAMP ID='CONE-RAMP', T=1.8249, F=79.0, /
&RAMP ID='CONE-RAMP', T=3.6498, F=121.7, /
&RAMP ID='CONE-RAMP', T=5.4747, F=167.8, /
&RAMP ID='CONE-RAMP', T=7.2996, F=206.0, /
&RAMP ID='CONE-RAMP', T=9.1245, F=233.8, /
&RAMP ID='CONE-RAMP', T=10.9494, F=249.1, /
&RAMP ID='CONE-RAMP', T=12.7743, F=252.1, /
&RAMP ID='CONE-RAMP', T=14.5992, F=246.4, /
&RAMP ID='CONE-RAMP', T=16.4241, F=236.5, /
&RAMP ID='CONE-RAMP', T=18.2489, F=225.1, /
&RAMP ID='CONE-RAMP', T=20.0738, F=214.1, /
&RAMP ID='CONE-RAMP', T=21.8987, F=204.5, /
&RAMP ID='CONE-RAMP', T=23.7236, F=196.2, /
&RAMP ID='CONE-RAMP', T=25.5485, F=189.4, /
&RAMP ID='CONE-RAMP', T=27.3734, F=183.8, /
&RAMP ID='CONE-RAMP', T=29.1983, F=179.2, /
&RAMP ID='CONE-RAMP', T=31.0232, F=175.2, /
&RAMP ID='CONE-RAMP', T=32.8481, F=171.8, /
&RAMP ID='CONE-RAMP', T=34.6730, F=168.9, /
! ... 1402 like lines cut
&SURF ID='SAMPLE-25-046', EXTERNAL_FLUX=1., HEAT_TRANSFER_COEFFICIENT=15.0000, HEAT_TRANSFER_COEFFICIENT_BACK=10., HRRPUA=1., IGNITION_TEMPERATURE=20.0, MATL_ID(1:2,1)='SAMPLE','BACKING', RAMP_EF='IGNITION_RAMP-25-046', RAMP_Q='CONE-RAMP', REFERENCE_HEAT_FLUX=66.1059, REFERENCE_HEAT_FLUX_TIME_INTERVAL=1., REFERENCE_CONE_THICKNESS=0.04619262, THICKNESS(1:2)=0.04619262,0.01270000, /
&RAMP ID='IGNITION_RAMP-25-046', T=0.0, F=34.6326, /
&RAMP ID='IGNITION_RAMP-25-046', T=1.0, F=34.6326, /
&OBST ID='SAMPLE-25-046', SURF_ID='SAMPLE-25-046', XB=0.0000,0.1000,0.0000,0.1000,0.0000,0.0000,DEVC_ID='TIGN-25-046', /
&DEVC ID='WALL TEMPERATURE-25-046', INITIAL_STATE=.FALSE., IOR=3, OUTPUT=.FALSE., QUANTITY='WALL TEMPERATURE', SETPOINT=20.0, XYZ=0.0500,0.0500,0.0000, /
&CTRL ID='IGNITION-CTRL-25-046', FUNCTION_TYPE='ANY', INPUT_ID='WALL TEMPERATURE-25-046', /
&DEVC ID='TIGN-25-046', XYZ=0,0,0, SETPOINT=132.6885, QUANTITY='TIME', INITIAL_STATE=.FALSE., /
&DEVC ID='IGNITION_DEVC-25-046', CTRL_ID='IGNITION-CTRL-25-046', IOR=3, OUTPUT=.FALSE., QUANTITY='CONTROL', XYZ=0.0500,0.0500,0.0000, /
&DEVC ID='HRRPUA-25-046', IOR=3, QUANTITY='HRRPUA', SPEC_ID='PROPANE', XYZ=0.0500,0.0500,0.0000, /
&DEVC ID='IGNITION-TIME-25-046', NO_UPDATE_DEVC_ID='IGNITION_DEVC-25-046', OUTPUT=.FALSE., QUANTITY='TIME', XYZ=0.0500,0.0500,0.0000, /
&SURF ID='SAMPLE-50-046', EXTERNAL_FLUX=1., HEAT_TRANSFER_COEFFICIENT=15.0000, HEAT_TRANSFER_COEFFICIENT_BACK=10., HRRPUA=1., IGNITION_TEMPERATURE=20.0, MATL_ID(1:2,1)='SAMPLE','BACKING', RAMP_EF='IGNITION_RAMP-50-046', RAMP_Q='CONE-RAMP', REFERENCE_HEAT_FLUX=66.1059, REFERENCE_HEAT_FLUX_TIME_INTERVAL=1., REFERENCE_CONE_THICKNESS=0.04619262, THICKNESS(1:2)=0.04619262,0.01270000, /
&RAMP ID='IGNITION_RAMP-50-046', T=0.0, F=66.1059, /
&RAMP ID='IGNITION_RAMP-50-046', T=1.0, F=66.1059, /
&OBST ID='SAMPLE-50-046', SURF_ID='SAMPLE-50-046', XB=0.1000,0.2000,0.0000,0.1000,0.0000,0.0000,DEVC_ID='TIGN-50-046', /
&DEVC ID='WALL TEMPERATURE-50-046', INITIAL_STATE=.FALSE., IOR=3, OUTPUT=.FALSE., QUANTITY='WALL TEMPERATURE', SETPOINT=20.0, XYZ=0.1500,0.0500,0.0000, /
&CTRL ID='IGNITION-CTRL-50-046', FUNCTION_TYPE='ANY', INPUT_ID='WALL TEMPERATURE-50-046', /
&DEVC ID='TIGN-50-046', XYZ=0,0,0, SETPOINT=17.0749, QUANTITY='TIME', INITIAL_STATE=.FALSE., /
&DEVC ID='IGNITION_DEVC-50-046', CTRL_ID='IGNITION-CTRL-50-046', IOR=3, OUTPUT=.FALSE., QUANTITY='CONTROL', XYZ=0.1500,0.0500,0.0000, /
&DEVC ID='HRRPUA-50-046', IOR=3, QUANTITY='HRRPUA', SPEC_ID='PROPANE', XYZ=0.1500,0.0500,0.0000, /
&DEVC ID='IGNITION-TIME-50-046', NO_UPDATE_DEVC_ID='IGNITION_DEVC-50-046', OUTPUT=.FALSE., QUANTITY='TIME', XYZ=0.1500,0.0500,0.0000, /
&SURF ID='SAMPLE-75-046', EXTERNAL_FLUX=1., HEAT_TRANSFER_COEFFICIENT=15.0000, HEAT_TRANSFER_COEFFICIENT_BACK=10., HRRPUA=1., IGNITION_TEMPERATURE=20.0, MATL_ID(1:2,1)='SAMPLE','BACKING', RAMP_EF='IGNITION_RAMP-75-046', RAMP_Q='CONE-RAMP', REFERENCE_HEAT_FLUX=66.1059, REFERENCE_HEAT_FLUX_TIME_INTERVAL=1., REFERENCE_CONE_THICKNESS=0.04619262, THICKNESS(1:2)=0.04619262,0.01270000, /
&RAMP ID='IGNITION_RAMP-75-046', T=0.0, F=95.6278, /
&RAMP ID='IGNITION_RAMP-75-046', T=1.0, F=95.6278, /
&OBST ID='SAMPLE-75-046', SURF_ID='SAMPLE-75-046', XB=0.2000,0.3000,0.0000,0.1000,0.0000,0.0000,DEVC_ID='TIGN-75-046', /
&DEVC ID='WALL TEMPERATURE-75-046', INITIAL_STATE=.FALSE., IOR=3, OUTPUT=.FALSE., QUANTITY='WALL TEMPERATURE', SETPOINT=20.0, XYZ=0.2500,0.0500,0.0000, /
&CTRL ID='IGNITION-CTRL-75-046', FUNCTION_TYPE='ANY', INPUT_ID='WALL TEMPERATURE-75-046', /
&DEVC ID='TIGN-75-046', XYZ=0,0,0, SETPOINT=5.4772, QUANTITY='TIME', INITIAL_STATE=.FALSE., /
&DEVC ID='IGNITION_DEVC-75-046', CTRL_ID='IGNITION-CTRL-75-046', IOR=3, OUTPUT=.FALSE., QUANTITY='CONTROL', XYZ=0.2500,0.0500,0.0000, /
&DEVC ID='HRRPUA-75-046', IOR=3, QUANTITY='HRRPUA', SPEC_ID='PROPANE', XYZ=0.2500,0.0500,0.0000, /
&DEVC ID='IGNITION-TIME-75-046', NO_UPDATE_DEVC_ID='IGNITION_DEVC-75-046', OUTPUT=.FALSE., QUANTITY='TIME', XYZ=0.2500,0.0500,0.0000, /
