&HEAD CHID='FSRI_HDPE', /
&TIME DT=1., T_END=20000.0 /
&DUMP DT_CTRL=1.0, DT_DEVC=1.0, DT_HRR=1.0, SIG_FIGS=4, SIG_FIGS_EXP=2, /
&MISC SOLID_PHASE_ONLY=.TRUE., TMPA=27., /
&MESH ID='MESH', IJK=3,3,3, XB=0.,0.3,0.,0.3,0.,0.3, /
&REAC ID='PROPANE', FUEL='PROPANE', /
&MATL ID='BACKING', CONDUCTIVITY=0.10, DENSITY=65., EMISSIVITY=0.9, SPECIFIC_HEAT=1.14, /
&MATL ID='SAMPLE', CONDUCTIVITY=0.2960, DENSITY=971.3, EMISSIVITY=1.0000, SPECIFIC_HEAT=1923.0000, /
&RAMP ID='CONE-RAMP', T=0.0000, F=35.3, /
&RAMP ID='CONE-RAMP', T=1.3320, F=46.8, /
&RAMP ID='CONE-RAMP', T=2.6641, F=59.8, /
&RAMP ID='CONE-RAMP', T=3.9961, F=72.5, /
&RAMP ID='CONE-RAMP', T=5.3282, F=85.8, /
&RAMP ID='CONE-RAMP', T=6.6602, F=100.0, /
&RAMP ID='CONE-RAMP', T=7.9923, F=115.7, /
&RAMP ID='CONE-RAMP', T=9.3243, F=132.7, /
&RAMP ID='CONE-RAMP', T=10.6564, F=150.5, /
&RAMP ID='CONE-RAMP', T=11.9884, F=169.2, /
&RAMP ID='CONE-RAMP', T=13.3205, F=188.8, /
&RAMP ID='CONE-RAMP', T=14.6525, F=210.0, /
&RAMP ID='CONE-RAMP', T=15.9846, F=231.7, /
&RAMP ID='CONE-RAMP', T=17.3166, F=253.5, /
&RAMP ID='CONE-RAMP', T=18.6486, F=275.1, /
&RAMP ID='CONE-RAMP', T=19.9807, F=296.5, /
&RAMP ID='CONE-RAMP', T=21.3127, F=318.7, /
&RAMP ID='CONE-RAMP', T=22.6448, F=341.7, /
&RAMP ID='CONE-RAMP', T=23.9768, F=364.3, /
&RAMP ID='CONE-RAMP', T=25.3089, F=387.0, /
! ... 237 like lines cut
&SURF ID='SAMPLE-25-003', EXTERNAL_FLUX=1., HEAT_TRANSFER_COEFFICIENT=15.0000, HEAT_TRANSFER_COEFFICIENT_BACK=10., HRRPUA=1., IGNITION_TEMPERATURE=20.0, MATL_ID(1:2,1)='SAMPLE','BACKING', RAMP_EF='IGNITION_RAMP-25-003', RAMP_Q='CONE-RAMP', REFERENCE_HEAT_FLUX=110.0311, REFERENCE_HEAT_FLUX_TIME_INTERVAL=1., REFERENCE_CONE_THICKNESS=0.00324142, THICKNESS(1:2)=0.00324142,0.01270000, /
&RAMP ID='IGNITION_RAMP-25-003', T=0.0, F=74.6288, /
&RAMP ID='IGNITION_RAMP-25-003', T=1.0, F=74.6288, /
&OBST ID='SAMPLE-25-003', SURF_ID='SAMPLE-25-003', XB=0.0000,0.1000,0.0000,0.1000,0.0000,0.0000,DEVC_ID='TIGN-25-003', /
&DEVC ID='WALL TEMPERATURE-25-003', INITIAL_STATE=.FALSE., IOR=3, OUTPUT=.FALSE., QUANTITY='WALL TEMPERATURE', SETPOINT=20.0, XYZ=0.0500,0.0500,0.0000, /
&CTRL ID='IGNITION-CTRL-25-003', FUNCTION_TYPE='ANY', INPUT_ID='WALL TEMPERATURE-25-003', /
&DEVC ID='TIGN-25-003', XYZ=0,0,0, SETPOINT=188.1250, QUANTITY='TIME', INITIAL_STATE=.FALSE., /
&DEVC ID='IGNITION_DEVC-25-003', CTRL_ID='IGNITION-CTRL-25-003', IOR=3, OUTPUT=.FALSE., QUANTITY='CONTROL', XYZ=0.0500,0.0500,0.0000, /
&DEVC ID='HRRPUA-25-003', IOR=3, QUANTITY='HRRPUA', SPEC_ID='PROPANE', XYZ=0.0500,0.0500,0.0000, /
&DEVC ID='IGNITION-TIME-25-003', NO_UPDATE_DEVC_ID='IGNITION_DEVC-25-003', OUTPUT=.FALSE., QUANTITY='TIME', XYZ=0.0500,0.0500,0.0000, /
&SURF ID='SAMPLE-50-003', EXTERNAL_FLUX=1., HEAT_TRANSFER_COEFFICIENT=15.0000, HEAT_TRANSFER_COEFFICIENT_BACK=10., HRRPUA=1., IGNITION_TEMPERATURE=20.0, MATL_ID(1:2,1)='SAMPLE','BACKING', RAMP_EF='IGNITION_RAMP-50-003', RAMP_Q='CONE-RAMP', REFERENCE_HEAT_FLUX=110.0311, REFERENCE_HEAT_FLUX_TIME_INTERVAL=1., REFERENCE_CONE_THICKNESS=0.00324142, THICKNESS(1:2)=0.00324142,0.01270000, /
&RAMP ID='IGNITION_RAMP-50-003', T=0.0, F=110.0311, /
&RAMP ID='IGNITION_RAMP-50-003', T=1.0, F=110.0311, /
&OBST ID='SAMPLE-50-003', SURF_ID='SAMPLE-50-003', XB=0.1000,0.2000,0.0000,0.1000,0.0000,0.0000,DEVC_ID='TIGN-50-003', /
&DEVC ID='WALL TEMPERATURE-50-003', INITIAL_STATE=.FALSE., IOR=3, OUTPUT=.FALSE., QUANTITY='WALL TEMPERATURE', SETPOINT=20.0, XYZ=0.1500,0.0500,0.0000, /
&CTRL ID='IGNITION-CTRL-50-003', FUNCTION_TYPE='ANY', INPUT_ID='WALL TEMPERATURE-50-003', /
&DEVC ID='TIGN-50-003', XYZ=0,0,0, SETPOINT=57.7461, QUANTITY='TIME', INITIAL_STATE=.FALSE., /
&DEVC ID='IGNITION_DEVC-50-003', CTRL_ID='IGNITION-CTRL-50-003', IOR=3, OUTPUT=.FALSE., QUANTITY='CONTROL', XYZ=0.1500,0.0500,0.0000, /
&DEVC ID='HRRPUA-50-003', IOR=3, QUANTITY='HRRPUA', SPEC_ID='PROPANE', XYZ=0.1500,0.0500,0.0000, /
&DEVC ID='IGNITION-TIME-50-003', NO_UPDATE_DEVC_ID='IGNITION_DEVC-50-003', OUTPUT=.FALSE., QUANTITY='TIME', XYZ=0.1500,0.0500,0.0000, /
&SURF ID='SAMPLE-75-003', EXTERNAL_FLUX=1., HEAT_TRANSFER_COEFFICIENT=15.0000, HEAT_TRANSFER_COEFFICIENT_BACK=10., HRRPUA=1., IGNITION_TEMPERATURE=20.0, MATL_ID(1:2,1)='SAMPLE','BACKING', RAMP_EF='IGNITION_RAMP-75-003', RAMP_Q='CONE-RAMP', REFERENCE_HEAT_FLUX=110.0311, REFERENCE_HEAT_FLUX_TIME_INTERVAL=1., REFERENCE_CONE_THICKNESS=0.00324142, THICKNESS(1:2)=0.00324142,0.01270000, /
&RAMP ID='IGNITION_RAMP-75-003', T=0.0, F=143.0331, /
&RAMP ID='IGNITION_RAMP-75-003', T=1.0, F=143.0331, /
&OBST ID='SAMPLE-75-003', SURF_ID='SAMPLE-75-003', XB=0.2000,0.3000,0.0000,0.1000,0.0000,0.0000,DEVC_ID='TIGN-75-003', /
&DEVC ID='WALL TEMPERATURE-75-003', INITIAL_STATE=.FALSE., IOR=3, OUTPUT=.FALSE., QUANTITY='WALL TEMPERATURE', SETPOINT=20.0, XYZ=0.2500,0.0500,0.0000, /
&CTRL ID='IGNITION-CTRL-75-003', FUNCTION_TYPE='ANY', INPUT_ID='WALL TEMPERATURE-75-003', /
&DEVC ID='TIGN-75-003', XYZ=0,0,0, SETPOINT=30.0281, QUANTITY='TIME', INITIAL_STATE=.FALSE., /
&DEVC ID='IGNITION_DEVC-75-003', CTRL_ID='IGNITION-CTRL-75-003', IOR=3, OUTPUT=.FALSE., QUANTITY='CONTROL', XYZ=0.2500,0.0500,0.0000, /
&DEVC ID='HRRPUA-75-003', IOR=3, QUANTITY='HRRPUA', SPEC_ID='PROPANE', XYZ=0.2500,0.0500,0.0000, /
&DEVC ID='IGNITION-TIME-75-003', NO_UPDATE_DEVC_ID='IGNITION_DEVC-75-003', OUTPUT=.FALSE., QUANTITY='TIME', XYZ=0.2500,0.0500,0.0000, /
