&HEAD CHID='FSRI_Cotton_Rug', /
&TIME DT=1., T_END=20000.0 /
&DUMP DT_CTRL=1.0, DT_DEVC=1.0, DT_HRR=1.0, SIG_FIGS=4, SIG_FIGS_EXP=2, /
&MISC SOLID_PHASE_ONLY=.TRUE., TMPA=27., /
&MESH ID='MESH', IJK=3,3,3, XB=0.,0.3,0.,0.3,0.,0.3, /
&REAC ID='PROPANE', FUEL='PROPANE', /
&MATL ID='BACKING', CONDUCTIVITY=0.10, DENSITY=65., EMISSIVITY=0.9, SPECIFIC_HEAT=1.14, /
&MATL ID='SAMPLE', CONDUCTIVITY=0.0710, DENSITY=263.0, EMISSIVITY=1.0000, SPECIFIC_HEAT=1564.0000, /
&RAMP ID='CONE-RAMP', T=0.0000, F=6.6, /
&RAMP ID='CONE-RAMP', T=1.4815, F=18.9, /
&RAMP ID='CONE-RAMP', T=2.9630, F=37.0, /
&RAMP ID='CONE-RAMP', T=4.4444, F=60.7, /
&RAMP ID='CONE-RAMP', T=5.9259, F=89.7, /
&RAMP ID='CONE-RAMP', T=7.4074, F=123.0, /
&RAMP ID='CONE-RAMP', T=8.8889, F=159.8, /
&RAMP ID='CONE-RAMP', T=10.3704, F=193.7, /
&RAMP ID='CONE-RAMP', T=11.8519, F=225.7, /
&RAMP ID='CONE-RAMP', T=13.3333, F=256.1, /
&RAMP ID='CONE-RAMP', T=14.8148, F=284.6, /
&RAMP ID='CONE-RAMP', T=16.2963, F=311.1, /
&RAMP ID='CONE-RAMP', T=17.7778, F=336.6, /
&RAMP ID='CONE-RAMP', T=19.2593, F=361.5, /
&RAMP ID='CONE-RAMP', T=20.7407, F=386.5, /
&RAMP ID='CONE-RAMP', T=22.2222, F=410.8, /
&RAMP ID='CONE-RAMP', T=23.7037, F=433.6, /
&RAMP ID='CONE-RAMP', T=25.1852, F=455.3, /
&RAMP ID='CONE-RAMP', T=26.6667, F=476.5, /
&RAMP ID='CONE-RAMP', T=28.1481, F=495.7, /
! ... 224 like lines cut
&SURF ID='SAMPLE-25-006', EXTERNAL_FLUX=1., HEAT_TRANSFER_COEFFICIENT=15.0000, HEAT_TRANSFER_COEFFICIENT_BACK=10., HRRPUA=1., IGNITION_TEMPERATURE=20.0, MATL_ID(1:2,1)='SAMPLE','BACKING', RAMP_EF='IGNITION_RAMP-25-006', RAMP_Q='CONE-RAMP', REFERENCE_HEAT_FLUX=75.0000, REFERENCE_HEAT_FLUX_TIME_INTERVAL=1., REFERENCE_CONE_THICKNESS=0.00610344, THICKNESS(1:2)=0.00610344,0.01270000, /
&RAMP ID='IGNITION_RAMP-25-006', T=0.0, F=47.9583, /
&RAMP ID='IGNITION_RAMP-25-006', T=1.0, F=47.9583, /
&OBST ID='SAMPLE-25-006', SURF_ID='SAMPLE-25-006', XB=0.0000,0.1000,0.0000,0.1000,0.0000,0.0000,DEVC_ID='TIGN-25-006', /
&DEVC ID='WALL TEMPERATURE-25-006', INITIAL_STATE=.FALSE., IOR=3, OUTPUT=.FALSE., QUANTITY='WALL TEMPERATURE', SETPOINT=20.0, XYZ=0.0500,0.0500,0.0000, /
&CTRL ID='IGNITION-CTRL-25-006', FUNCTION_TYPE='ANY', INPUT_ID='WALL TEMPERATURE-25-006', /
&DEVC ID='TIGN-25-006', XYZ=0,0,0, SETPOINT=66.7209, QUANTITY='TIME', INITIAL_STATE=.FALSE., /
&DEVC ID='IGNITION_DEVC-25-006', CTRL_ID='IGNITION-CTRL-25-006', IOR=3, OUTPUT=.FALSE., QUANTITY='CONTROL', XYZ=0.0500,0.0500,0.0000, /
&DEVC ID='HRRPUA-25-006', IOR=3, QUANTITY='HRRPUA', SPEC_ID='PROPANE', XYZ=0.0500,0.0500,0.0000, /
&DEVC ID='IGNITION-TIME-25-006', NO_UPDATE_DEVC_ID='IGNITION_DEVC-25-006', OUTPUT=.FALSE., QUANTITY='TIME', XYZ=0.0500,0.0500,0.0000, /
&SURF ID='SAMPLE-50-006', EXTERNAL_FLUX=1., HEAT_TRANSFER_COEFFICIENT=15.0000, HEAT_TRANSFER_COEFFICIENT_BACK=10., HRRPUA=1., IGNITION_TEMPERATURE=20.0, MATL_ID(1:2,1)='SAMPLE','BACKING', RAMP_EF='IGNITION_RAMP-50-006', RAMP_Q='CONE-RAMP', REFERENCE_HEAT_FLUX=75.0000, REFERENCE_HEAT_FLUX_TIME_INTERVAL=1., REFERENCE_CONE_THICKNESS=0.00610344, THICKNESS(1:2)=0.00610344,0.01270000, /
&RAMP ID='IGNITION_RAMP-50-006', T=0.0, F=81.2329, /
&RAMP ID='IGNITION_RAMP-50-006', T=1.0, F=81.2329, /
&OBST ID='SAMPLE-50-006', SURF_ID='SAMPLE-50-006', XB=0.1000,0.2000,0.0000,0.1000,0.0000,0.0000,DEVC_ID='TIGN-50-006', /
&DEVC ID='WALL TEMPERATURE-50-006', INITIAL_STATE=.FALSE., IOR=3, OUTPUT=.FALSE., QUANTITY='WALL TEMPERATURE', SETPOINT=20.0, XYZ=0.1500,0.0500,0.0000, /
&CTRL ID='IGNITION-CTRL-50-006', FUNCTION_TYPE='ANY', INPUT_ID='WALL TEMPERATURE-50-006', /
&DEVC ID='TIGN-50-006', XYZ=0,0,0, SETPOINT=11.0000, QUANTITY='TIME', INITIAL_STATE=.FALSE., /
&DEVC ID='IGNITION_DEVC-50-006', CTRL_ID='IGNITION-CTRL-50-006', IOR=3, OUTPUT=.FALSE., QUANTITY='CONTROL', XYZ=0.1500,0.0500,0.0000, /
&DEVC ID='HRRPUA-50-006', IOR=3, QUANTITY='HRRPUA', SPEC_ID='PROPANE', XYZ=0.1500,0.0500,0.0000, /
&DEVC ID='IGNITION-TIME-50-006', NO_UPDATE_DEVC_ID='IGNITION_DEVC-50-006', OUTPUT=.FALSE., QUANTITY='TIME', XYZ=0.1500,0.0500,0.0000, /
&SURF ID='SAMPLE-75-006', EXTERNAL_FLUX=1., HEAT_TRANSFER_COEFFICIENT=15.0000, HEAT_TRANSFER_COEFFICIENT_BACK=10., HRRPUA=1., IGNITION_TEMPERATURE=20.0, MATL_ID(1:2,1)='SAMPLE','BACKING', RAMP_EF='IGNITION_RAMP-75-006', RAMP_Q='CONE-RAMP', REFERENCE_HEAT_FLUX=75.0000, REFERENCE_HEAT_FLUX_TIME_INTERVAL=1., REFERENCE_CONE_THICKNESS=0.00610344, THICKNESS(1:2)=0.00610344,0.01270000, /
&RAMP ID='IGNITION_RAMP-75-006', T=0.0, F=112.2443, /
&RAMP ID='IGNITION_RAMP-75-006', T=1.0, F=112.2443, /
&OBST ID='SAMPLE-75-006', SURF_ID='SAMPLE-75-006', XB=0.2000,0.3000,0.0000,0.1000,0.0000,0.0000,DEVC_ID='TIGN-75-006', /
&DEVC ID='WALL TEMPERATURE-75-006', INITIAL_STATE=.FALSE., IOR=3, OUTPUT=.FALSE., QUANTITY='WALL TEMPERATURE', SETPOINT=20.0, XYZ=0.2500,0.0500,0.0000, /
&CTRL ID='IGNITION-CTRL-75-006', FUNCTION_TYPE='ANY', INPUT_ID='WALL TEMPERATURE-75-006', /
&DEVC ID='TIGN-75-006', XYZ=0,0,0, SETPOINT=3.2192, QUANTITY='TIME', INITIAL_STATE=.FALSE., /
&DEVC ID='IGNITION_DEVC-75-006', CTRL_ID='IGNITION-CTRL-75-006', IOR=3, OUTPUT=.FALSE., QUANTITY='CONTROL', XYZ=0.2500,0.0500,0.0000, /
&DEVC ID='HRRPUA-75-006', IOR=3, QUANTITY='HRRPUA', SPEC_ID='PROPANE', XYZ=0.2500,0.0500,0.0000, /
&DEVC ID='IGNITION-TIME-75-006', NO_UPDATE_DEVC_ID='IGNITION_DEVC-75-006', OUTPUT=.FALSE., QUANTITY='TIME', XYZ=0.2500,0.0500,0.0000, /
