&HEAD CHID='FSRI_PC', /
&TIME DT=1., T_END=20000.0 /
&DUMP DT_CTRL=1.0, DT_DEVC=1.0, DT_HRR=1.0, SIG_FIGS=4, SIG_FIGS_EXP=2, /
&MISC SOLID_PHASE_ONLY=.TRUE., TMPA=27., /
&MESH ID='MESH', IJK=3,3,3, XB=0.,0.3,0.,0.3,0.,0.3, /
&REAC ID='PROPANE', FUEL='PROPANE', /
&MATL ID='BACKING', CONDUCTIVITY=0.10, DENSITY=65., EMISSIVITY=0.9, SPECIFIC_HEAT=1.14, /
&MATL ID='SAMPLE', CONDUCTIVITY=0.1790, DENSITY=1220.0, EMISSIVITY=1.0000, SPECIFIC_HEAT=1263.0000, /
&RAMP ID='CONE-RAMP', T=0.0000, F=10.9, /
&RAMP ID='CONE-RAMP', T=7.1849, F=92.9, /
&RAMP ID='CONE-RAMP', T=14.3697, F=237.8, /
&RAMP ID='CONE-RAMP', T=21.5546, F=398.6, /
&RAMP ID='CONE-RAMP', T=28.7395, F=483.9, /
&RAMP ID='CONE-RAMP', T=35.9244, F=487.6, /
&RAMP ID='CONE-RAMP', T=43.1092, F=480.5, /
&RAMP ID='CONE-RAMP', T=50.2941, F=476.6, /
&RAMP ID='CONE-RAMP', T=57.4790, F=464.0, /
&RAMP ID='CONE-RAMP', T=64.6639, F=449.1, /
&RAMP ID='CONE-RAMP', T=71.8487, F=434.0, /
&RAMP ID='CONE-RAMP', T=79.0336, F=418.8, /
&RAMP ID='CONE-RAMP', T=86.2185, F=406.2, /
&RAMP ID='CONE-RAMP', T=93.4034, F=385.3, /
&RAMP ID='CONE-RAMP', T=100.5882, F=366.9, /
&RAMP ID='CONE-RAMP', T=107.7731, F=355.7, /
&RAMP ID='CONE-RAMP', T=114.9580, F=343.9, /
&RAMP ID='CONE-RAMP', T=122.1429, F=335.6, /
&RAMP ID='CONE-RAMP', T=129.3277, F=323.0, /
&RAMP ID='CONE-RAMP', T=136.5126, F=305.6, /
! ... 100 like lines cut
&SURF ID='SAMPLE-25-005', EXTERNAL_FLUX=1., HEAT_TRANSFER_COEFFICIENT=15.0000, HEAT_TRANSFER_COEFFICIENT_BACK=10., HRRPUA=1., IGNITION_TEMPERATURE=20.0, MATL_ID(1:2,1)='SAMPLE','BACKING', RAMP_EF='IGNITION_RAMP-25-005', RAMP_Q='CONE-RAMP', REFERENCE_HEAT_FLUX=75.0000, REFERENCE_HEAT_FLUX_TIME_INTERVAL=1., REFERENCE_CONE_THICKNESS=0.00532787, THICKNESS(1:2)=0.00532787,0.01270000, /
&RAMP ID='IGNITION_RAMP-25-005', T=0.0, F=45.3402, /
&RAMP ID='IGNITION_RAMP-25-005', T=1.0, F=45.3402, /
&OBST ID='SAMPLE-25-005', SURF_ID='SAMPLE-25-005', XB=0.0000,0.1000,0.0000,0.1000,0.0000,0.0000,DEVC_ID='TIGN-25-005', /
&DEVC ID='WALL TEMPERATURE-25-005', INITIAL_STATE=.FALSE., IOR=3, OUTPUT=.FALSE., QUANTITY='WALL TEMPERATURE', SETPOINT=20.0, XYZ=0.0500,0.0500,0.0000, /
&CTRL ID='IGNITION-CTRL-25-005', FUNCTION_TYPE='ANY', INPUT_ID='WALL TEMPERATURE-25-005', /
&DEVC ID='TIGN-25-005', XYZ=0,0,0, SETPOINT=0.2250, QUANTITY='TIME', INITIAL_STATE=.FALSE., /
&DEVC ID='IGNITION_DEVC-25-005', CTRL_ID='IGNITION-CTRL-25-005', IOR=3, OUTPUT=.FALSE., QUANTITY='CONTROL', XYZ=0.0500,0.0500,0.0000, /
&DEVC ID='HRRPUA-25-005', IOR=3, QUANTITY='HRRPUA', SPEC_ID='PROPANE', XYZ=0.0500,0.0500,0.0000, /
&DEVC ID='IGNITION-TIME-25-005', NO_UPDATE_DEVC_ID='IGNITION_DEVC-25-005', OUTPUT=.FALSE., QUANTITY='TIME', XYZ=0.0500,0.0500,0.0000, /
&SURF ID='SAMPLE-50-005', EXTERNAL_FLUX=1., HEAT_TRANSFER_COEFFICIENT=15.0000, HEAT_TRANSFER_COEFFICIENT_BACK=10., HRRPUA=1., IGNITION_TEMPERATURE=20.0, MATL_ID(1:2,1)='SAMPLE','BACKING', RAMP_EF='IGNITION_RAMP-50-005', RAMP_Q='CONE-RAMP', REFERENCE_HEAT_FLUX=75.0000, REFERENCE_HEAT_FLUX_TIME_INTERVAL=1., REFERENCE_CONE_THICKNESS=0.00532787, THICKNESS(1:2)=0.00532787,0.01270000, /
&RAMP ID='IGNITION_RAMP-50-005', T=0.0, F=78.3177, /
&RAMP ID='IGNITION_RAMP-50-005', T=1.0, F=78.3177, /
&OBST ID='SAMPLE-50-005', SURF_ID='SAMPLE-50-005', XB=0.1000,0.2000,0.0000,0.1000,0.0000,0.0000,DEVC_ID='TIGN-50-005', /
&DEVC ID='WALL TEMPERATURE-50-005', INITIAL_STATE=.FALSE., IOR=3, OUTPUT=.FALSE., QUANTITY='WALL TEMPERATURE', SETPOINT=20.0, XYZ=0.1500,0.0500,0.0000, /
&CTRL ID='IGNITION-CTRL-50-005', FUNCTION_TYPE='ANY', INPUT_ID='WALL TEMPERATURE-50-005', /
&DEVC ID='TIGN-50-005', XYZ=0,0,0, SETPOINT=146.0000, QUANTITY='TIME', INITIAL_STATE=.FALSE., /
&DEVC ID='IGNITION_DEVC-50-005', CTRL_ID='IGNITION-CTRL-50-005', IOR=3, OUTPUT=.FALSE., QUANTITY='CONTROL', XYZ=0.1500,0.0500,0.0000, /
&DEVC ID='HRRPUA-50-005', IOR=3, QUANTITY='HRRPUA', SPEC_ID='PROPANE', XYZ=0.1500,0.0500,0.0000, /
&DEVC ID='IGNITION-TIME-50-005', NO_UPDATE_DEVC_ID='IGNITION_DEVC-50-005', OUTPUT=.FALSE., QUANTITY='TIME', XYZ=0.1500,0.0500,0.0000, /
&SURF ID='SAMPLE-75-005', EXTERNAL_FLUX=1., HEAT_TRANSFER_COEFFICIENT=15.0000, HEAT_TRANSFER_COEFFICIENT_BACK=10., HRRPUA=1., IGNITION_TEMPERATURE=20.0, MATL_ID(1:2,1)='SAMPLE','BACKING', RAMP_EF='IGNITION_RAMP-75-005', RAMP_Q='CONE-RAMP', REFERENCE_HEAT_FLUX=75.0000, REFERENCE_HEAT_FLUX_TIME_INTERVAL=1., REFERENCE_CONE_THICKNESS=0.00532787, THICKNESS(1:2)=0.00532787,0.01270000, /
&RAMP ID='IGNITION_RAMP-75-005', T=0.0, F=109.0728, /
&RAMP ID='IGNITION_RAMP-75-005', T=1.0, F=109.0728, /
&OBST ID='SAMPLE-75-005', SURF_ID='SAMPLE-75-005', XB=0.2000,0.3000,0.0000,0.1000,0.0000,0.0000,DEVC_ID='TIGN-75-005', /
&DEVC ID='WALL TEMPERATURE-75-005', INITIAL_STATE=.FALSE., IOR=3, OUTPUT=.FALSE., QUANTITY='WALL TEMPERATURE', SETPOINT=20.0, XYZ=0.2500,0.0500,0.0000, /
&CTRL ID='IGNITION-CTRL-75-005', FUNCTION_TYPE='ANY', INPUT_ID='WALL TEMPERATURE-75-005', /
&DEVC ID='TIGN-75-005', XYZ=0,0,0, SETPOINT=54.3276, QUANTITY='TIME', INITIAL_STATE=.FALSE., /
&DEVC ID='IGNITION_DEVC-75-005', CTRL_ID='IGNITION-CTRL-75-005', IOR=3, OUTPUT=.FALSE., QUANTITY='CONTROL', XYZ=0.2500,0.0500,0.0000, /
&DEVC ID='HRRPUA-75-005', IOR=3, QUANTITY='HRRPUA', SPEC_ID='PROPANE', XYZ=0.2500,0.0500,0.0000, /
&DEVC ID='IGNITION-TIME-75-005', NO_UPDATE_DEVC_ID='IGNITION_DEVC-75-005', OUTPUT=.FALSE., QUANTITY='TIME', XYZ=0.2500,0.0500,0.0000, /
