&HEAD CHID='FSRI_Oak_Flooring', /
&TIME DT=1., T_END=20000.0 /
&DUMP DT_CTRL=1.0, DT_DEVC=1.0, DT_HRR=1.0, SIG_FIGS=4, SIG_FIGS_EXP=2, /
&MISC SOLID_PHASE_ONLY=.TRUE., TMPA=27., /
&MESH ID='MESH', IJK=3,3,3, XB=0.,0.3,0.,0.3,0.,0.3, /
&REAC ID='PROPANE', FUEL='PROPANE', /
&MATL ID='BACKING', CONDUCTIVITY=0.10, DENSITY=65., EMISSIVITY=0.9, SPECIFIC_HEAT=1.14, /
&MATL ID='SAMPLE', CONDUCTIVITY=0.1470, DENSITY=713.7, EMISSIVITY=1.0000, SPECIFIC_HEAT=1569.0000, /
&RAMP ID='CONE-RAMP', T=0.0000, F=51.2, /
&RAMP ID='CONE-RAMP', T=1.4784, F=78.6, /
&RAMP ID='CONE-RAMP', T=2.9568, F=110.5, /
&RAMP ID='CONE-RAMP', T=4.4352, F=145.4, /
&RAMP ID='CONE-RAMP', T=5.9136, F=178.5, /
&RAMP ID='CONE-RAMP', T=7.3920, F=208.5, /
&RAMP ID='CONE-RAMP', T=8.8704, F=233.8, /
&RAMP ID='CONE-RAMP', T=10.3488, F=253.7, /
&RAMP ID='CONE-RAMP', T=11.8272, F=268.6, /
&RAMP ID='CONE-RAMP', T=13.3056, F=279.5, /
&RAMP ID='CONE-RAMP', T=14.7841, F=286.9, /
&RAMP ID='CONE-RAMP', T=16.2625, F=292.1, /
&RAMP ID='CONE-RAMP', T=17.7409, F=295.2, /
&RAMP ID='CONE-RAMP', T=19.2193, F=296.6, /
&RAMP ID='CONE-RAMP', T=20.6977, F=296.6, /
&RAMP ID='CONE-RAMP', T=22.1761, F=295.1, /
&RAMP ID='CONE-RAMP', T=23.6545, F=292.3, /
&RAMP ID='CONE-RAMP', T=25.1329, F=288.5, /
&RAMP ID='CONE-RAMP', T=26.6113, F=284.0, /
&RAMP ID='CONE-RAMP', T=28.0897, F=278.9, /
! ... 882 like lines cut
&SURF ID='SAMPLE-25-019', EXTERNAL_FLUX=1., HEAT_TRANSFER_COEFFICIENT=15.0000, HEAT_TRANSFER_COEFFICIENT_BACK=10., HRRPUA=1., IGNITION_TEMPERATURE=20.0, MATL_ID(1:2,1)='SAMPLE','BACKING', RAMP_EF='IGNITION_RAMP-25-019', RAMP_Q='CONE-RAMP', REFERENCE_HEAT_FLUX=68.4087, REFERENCE_HEAT_FLUX_TIME_INTERVAL=1., REFERENCE_CONE_THICKNESS=0.01986782, THICKNESS(1:2)=0.01986782,0.01270000, /
&RAMP ID='IGNITION_RAMP-25-019', T=0.0, F=36.6151, /
&RAMP ID='IGNITION_RAMP-25-019', T=1.0, F=36.6151, /
&OBST ID='SAMPLE-25-019', SURF_ID='SAMPLE-25-019', XB=0.0000,0.1000,0.0000,0.1000,0.0000,0.0000,DEVC_ID='TIGN-25-019', /
&DEVC ID='WALL TEMPERATURE-25-019', INITIAL_STATE=.FALSE., IOR=3, OUTPUT=.FALSE., QUANTITY='WALL TEMPERATURE', SETPOINT=20.0, XYZ=0.0500,0.0500,0.0000, /
&CTRL ID='IGNITION-CTRL-25-019', FUNCTION_TYPE='ANY', INPUT_ID='WALL TEMPERATURE-25-019', /
&DEVC ID='TIGN-25-019', XYZ=0,0,0, SETPOINT=199.1991, QUANTITY='TIME', INITIAL_STATE=.FALSE., /
&DEVC ID='IGNITION_DEVC-25-019', CTRL_ID='IGNITION-CTRL-25-019', IOR=3, OUTPUT=.FALSE., QUANTITY='CONTROL', XYZ=0.0500,0.0500,0.0000, /
&DEVC ID='HRRPUA-25-019', IOR=3, QUANTITY='HRRPUA', SPEC_ID='PROPANE', XYZ=0.0500,0.0500,0.0000, /
&DEVC ID='IGNITION-TIME-25-019', NO_UPDATE_DEVC_ID='IGNITION_DEVC-25-019', OUTPUT=.FALSE., QUANTITY='TIME', XYZ=0.0500,0.0500,0.0000, /
&SURF ID='SAMPLE-50-019', EXTERNAL_FLUX=1., HEAT_TRANSFER_COEFFICIENT=15.0000, HEAT_TRANSFER_COEFFICIENT_BACK=10., HRRPUA=1., IGNITION_TEMPERATURE=20.0, MATL_ID(1:2,1)='SAMPLE','BACKING', RAMP_EF='IGNITION_RAMP-50-019', RAMP_Q='CONE-RAMP', REFERENCE_HEAT_FLUX=68.4087, REFERENCE_HEAT_FLUX_TIME_INTERVAL=1., REFERENCE_CONE_THICKNESS=0.01986782, THICKNESS(1:2)=0.01986782,0.01270000, /
&RAMP ID='IGNITION_RAMP-50-019', T=0.0, F=68.4087, /
&RAMP ID='IGNITION_RAMP-50-019', T=1.0, F=68.4087, /
&OBST ID='SAMPLE-50-019', SURF_ID='SAMPLE-50-019', XB=0.1000,0.2000,0.0000,0.1000,0.0000,0.0000,DEVC_ID='TIGN-50-019', /
&DEVC ID='WALL TEMPERATURE-50-019', INITIAL_STATE=.FALSE., IOR=3, OUTPUT=.FALSE., QUANTITY='WALL TEMPERATURE', SETPOINT=20.0, XYZ=0.1500,0.0500,0.0000, /
&CTRL ID='IGNITION-CTRL-50-019', FUNCTION_TYPE='ANY', INPUT_ID='WALL TEMPERATURE-50-019', /
&DEVC ID='TIGN-50-019', XYZ=0,0,0, SETPOINT=30.7068, QUANTITY='TIME', INITIAL_STATE=.FALSE., /
&DEVC ID='IGNITION_DEVC-50-019', CTRL_ID='IGNITION-CTRL-50-019', IOR=3, OUTPUT=.FALSE., QUANTITY='CONTROL', XYZ=0.1500,0.0500,0.0000, /
&DEVC ID='HRRPUA-50-019', IOR=3, QUANTITY='HRRPUA', SPEC_ID='PROPANE', XYZ=0.1500,0.0500,0.0000, /
&DEVC ID='IGNITION-TIME-50-019', NO_UPDATE_DEVC_ID='IGNITION_DEVC-50-019', OUTPUT=.FALSE., QUANTITY='TIME', XYZ=0.1500,0.0500,0.0000, /
&SURF ID='SAMPLE-75-019', EXTERNAL_FLUX=1., HEAT_TRANSFER_COEFFICIENT=15.0000, HEAT_TRANSFER_COEFFICIENT_BACK=10., HRRPUA=1., IGNITION_TEMPERATURE=20.0, MATL_ID(1:2,1)='SAMPLE','BACKING', RAMP_EF='IGNITION_RAMP-75-019', RAMP_Q='CONE-RAMP', REFERENCE_HEAT_FLUX=68.4087, REFERENCE_HEAT_FLUX_TIME_INTERVAL=1., REFERENCE_CONE_THICKNESS=0.01986782, THICKNESS(1:2)=0.01986782,0.01270000, /
&RAMP ID='IGNITION_RAMP-75-019', T=0.0, F=98.1854, /
&RAMP ID='IGNITION_RAMP-75-019', T=1.0, F=98.1854, /
&OBST ID='SAMPLE-75-019', SURF_ID='SAMPLE-75-019', XB=0.2000,0.3000,0.0000,0.1000,0.0000,0.0000,DEVC_ID='TIGN-75-019', /
&DEVC ID='WALL TEMPERATURE-75-019', INITIAL_STATE=.FALSE., IOR=3, OUTPUT=.FALSE., QUANTITY='WALL TEMPERATURE', SETPOINT=20.0, XYZ=0.2500,0.0500,0.0000, /
&CTRL ID='IGNITION-CTRL-75-019', FUNCTION_TYPE='ANY', INPUT_ID='WALL TEMPERATURE-75-019', /
&DEVC ID='TIGN-75-019', XYZ=0,0,0, SETPOINT=12.5761, QUANTITY='TIME', INITIAL_STATE=.FALSE., /
&DEVC ID='IGNITION_DEVC-75-019', CTRL_ID='IGNITION-CTRL-75-019', IOR=3, OUTPUT=.FALSE., QUANTITY='CONTROL', XYZ=0.2500,0.0500,0.0000, /
&DEVC ID='HRRPUA-75-019', IOR=3, QUANTITY='HRRPUA', SPEC_ID='PROPANE', XYZ=0.2500,0.0500,0.0000, /
&DEVC ID='IGNITION-TIME-75-019', NO_UPDATE_DEVC_ID='IGNITION_DEVC-75-019', OUTPUT=.FALSE., QUANTITY='TIME', XYZ=0.2500,0.0500,0.0000, /
