&HEAD CHID='FSRI_PlasticC', /
&TIME DT=1., T_END=20000.0 /
&DUMP DT_CTRL=1.0, DT_DEVC=1.0, DT_HRR=1.0, SIG_FIGS=4, SIG_FIGS_EXP=2, /
&MISC SOLID_PHASE_ONLY=.TRUE., TMPA=27., /
&MESH ID='MESH', IJK=3,3,3, XB=0.,0.3,0.,0.3,0.,0.3, /
&REAC ID='PROPANE', FUEL='PROPANE', /
&MATL ID='BACKING', CONDUCTIVITY=0.10, DENSITY=65., EMISSIVITY=0.9, SPECIFIC_HEAT=1.14, /
&MATL ID='SAMPLE', CONDUCTIVITY=0.1250, DENSITY=1057.7, EMISSIVITY=1.0000, SPECIFIC_HEAT=1365.0000, /
&RAMP ID='CONE-RAMP', T=0.0000, F=12.6, /
&RAMP ID='CONE-RAMP', T=2.2566, F=47.4, /
&RAMP ID='CONE-RAMP', T=4.5133, F=107.5, /
&RAMP ID='CONE-RAMP', T=6.7699, F=188.5, /
&RAMP ID='CONE-RAMP', T=9.0265, F=280.1, /
&RAMP ID='CONE-RAMP', T=11.2832, F=368.1, /
&RAMP ID='CONE-RAMP', T=13.5398, F=443.8, /
&RAMP ID='CONE-RAMP', T=15.7965, F=508.0, /
&RAMP ID='CONE-RAMP', T=18.0531, F=564.3, /
&RAMP ID='CONE-RAMP', T=20.3097, F=615.9, /
&RAMP ID='CONE-RAMP', T=22.5664, F=661.3, /
&RAMP ID='CONE-RAMP', T=24.8230, F=698.8, /
&RAMP ID='CONE-RAMP', T=27.0796, F=730.6, /
&RAMP ID='CONE-RAMP', T=29.3363, F=759.2, /
&RAMP ID='CONE-RAMP', T=31.5929, F=785.3, /
&RAMP ID='CONE-RAMP', T=33.8496, F=811.9, /
&RAMP ID='CONE-RAMP', T=36.1062, F=840.1, /
&RAMP ID='CONE-RAMP', T=38.3628, F=872.7, /
&RAMP ID='CONE-RAMP', T=40.6195, F=903.4, /
&RAMP ID='CONE-RAMP', T=42.8761, F=934.4, /
! ... 94 like lines cut
&SURF ID='SAMPLE-25-002', EXTERNAL_FLUX=1., HEAT_TRANSFER_COEFFICIENT=0.0000, HEAT_TRANSFER_COEFFICIENT_BACK=10., HRRPUA=1., IGNITION_TEMPERATURE=20.0, MATL_ID(1:2,1)='SAMPLE','BACKING', RAMP_EF='IGNITION_RAMP-25-002', RAMP_Q='CONE-RAMP', REFERENCE_HEAT_FLUX=99.0140, REFERENCE_HEAT_FLUX_TIME_INTERVAL=1., REFERENCE_CONE_THICKNESS=0.00297825, THICKNESS(1:2)=0.00297825,0.01270000, /
&RAMP ID='IGNITION_RAMP-25-002', T=0.0, F=64.2864, /
&RAMP ID='IGNITION_RAMP-25-002', T=1.0, F=64.2864, /
&OBST ID='SAMPLE-25-002', SURF_ID='SAMPLE-25-002', XB=0.0000,0.1000,0.0000,0.1000,0.0000,0.0000,DEVC_ID='TIGN-25-002', /
&DEVC ID='WALL TEMPERATURE-25-002', INITIAL_STATE=.FALSE., IOR=3, OUTPUT=.FALSE., QUANTITY='WALL TEMPERATURE', SETPOINT=20.0, XYZ=0.0500,0.0500,0.0000, /
&CTRL ID='IGNITION-CTRL-25-002', FUNCTION_TYPE='ANY', INPUT_ID='WALL TEMPERATURE-25-002', /
&DEVC ID='TIGN-25-002', XYZ=0,0,0, SETPOINT=139.5000, QUANTITY='TIME', INITIAL_STATE=.FALSE., /
&DEVC ID='IGNITION_DEVC-25-002', CTRL_ID='IGNITION-CTRL-25-002', IOR=3, OUTPUT=.FALSE., QUANTITY='CONTROL', XYZ=0.0500,0.0500,0.0000, /
&DEVC ID='HRRPUA-25-002', IOR=3, QUANTITY='HRRPUA', SPEC_ID='PROPANE', XYZ=0.0500,0.0500,0.0000, /
&DEVC ID='IGNITION-TIME-25-002', NO_UPDATE_DEVC_ID='IGNITION_DEVC-25-002', OUTPUT=.FALSE., QUANTITY='TIME', XYZ=0.0500,0.0500,0.0000, /
&SURF ID='SAMPLE-50-002', EXTERNAL_FLUX=1., HEAT_TRANSFER_COEFFICIENT=0.0000, HEAT_TRANSFER_COEFFICIENT_BACK=10., HRRPUA=1., IGNITION_TEMPERATURE=20.0, MATL_ID(1:2,1)='SAMPLE','BACKING', RAMP_EF='IGNITION_RAMP-50-002', RAMP_Q='CONE-RAMP', REFERENCE_HEAT_FLUX=99.0140, REFERENCE_HEAT_FLUX_TIME_INTERVAL=1., REFERENCE_CONE_THICKNESS=0.00297825, THICKNESS(1:2)=0.00297825,0.01270000, /
&RAMP ID='IGNITION_RAMP-50-002', T=0.0, F=99.0140, /
&RAMP ID='IGNITION_RAMP-50-002', T=1.0, F=99.0140, /
&OBST ID='SAMPLE-50-002', SURF_ID='SAMPLE-50-002', XB=0.1000,0.2000,0.0000,0.1000,0.0000,0.0000,DEVC_ID='TIGN-50-002', /
&DEVC ID='WALL TEMPERATURE-50-002', INITIAL_STATE=.FALSE., IOR=3, OUTPUT=.FALSE., QUANTITY='WALL TEMPERATURE', SETPOINT=20.0, XYZ=0.1500,0.0500,0.0000, /
&CTRL ID='IGNITION-CTRL-50-002', FUNCTION_TYPE='ANY', INPUT_ID='WALL TEMPERATURE-50-002', /
&DEVC ID='TIGN-50-002', XYZ=0,0,0, SETPOINT=35.5000, QUANTITY='TIME', INITIAL_STATE=.FALSE., /
&DEVC ID='IGNITION_DEVC-50-002', CTRL_ID='IGNITION-CTRL-50-002', IOR=3, OUTPUT=.FALSE., QUANTITY='CONTROL', XYZ=0.1500,0.0500,0.0000, /
&DEVC ID='HRRPUA-50-002', IOR=3, QUANTITY='HRRPUA', SPEC_ID='PROPANE', XYZ=0.1500,0.0500,0.0000, /
&DEVC ID='IGNITION-TIME-50-002', NO_UPDATE_DEVC_ID='IGNITION_DEVC-50-002', OUTPUT=.FALSE., QUANTITY='TIME', XYZ=0.1500,0.0500,0.0000, /
&SURF ID='SAMPLE-75-002', EXTERNAL_FLUX=1., HEAT_TRANSFER_COEFFICIENT=0.0000, HEAT_TRANSFER_COEFFICIENT_BACK=10., HRRPUA=1., IGNITION_TEMPERATURE=20.0, MATL_ID(1:2,1)='SAMPLE','BACKING', RAMP_EF='IGNITION_RAMP-75-002', RAMP_Q='CONE-RAMP', REFERENCE_HEAT_FLUX=99.0140, REFERENCE_HEAT_FLUX_TIME_INTERVAL=1., REFERENCE_CONE_THICKNESS=0.00297825, THICKNESS(1:2)=0.00297825,0.01270000, /
&RAMP ID='IGNITION_RAMP-75-002', T=0.0, F=131.3533, /
&RAMP ID='IGNITION_RAMP-75-002', T=1.0, F=131.3533, /
&OBST ID='SAMPLE-75-002', SURF_ID='SAMPLE-75-002', XB=0.2000,0.3000,0.0000,0.1000,0.0000,0.0000,DEVC_ID='TIGN-75-002', /
&DEVC ID='WALL TEMPERATURE-75-002', INITIAL_STATE=.FALSE., IOR=3, OUTPUT=.FALSE., QUANTITY='WALL TEMPERATURE', SETPOINT=20.0, XYZ=0.2500,0.0500,0.0000, /
&CTRL ID='IGNITION-CTRL-75-002', FUNCTION_TYPE='ANY', INPUT_ID='WALL TEMPERATURE-75-002', /
&DEVC ID='TIGN-75-002', XYZ=0,0,0, SETPOINT=16.0793, QUANTITY='TIME', INITIAL_STATE=.FALSE., /
&DEVC ID='IGNITION_DEVC-75-002', CTRL_ID='IGNITION-CTRL-75-002', IOR=3, OUTPUT=.FALSE., QUANTITY='CONTROL', XYZ=0.2500,0.0500,0.0000, /
&DEVC ID='HRRPUA-75-002', IOR=3, QUANTITY='HRRPUA', SPEC_ID='PROPANE', XYZ=0.2500,0.0500,0.0000, /
&DEVC ID='IGNITION-TIME-75-002', NO_UPDATE_DEVC_ID='IGNITION_DEVC-75-002', OUTPUT=.FALSE., QUANTITY='TIME', XYZ=0.2500,0.0500,0.0000, /
