&HEAD CHID='JH_Black_PMMA', /
&TIME DT=1., T_END=1740.0 /
&DUMP DT_CTRL=1.0, DT_DEVC=1.0, DT_HRR=1.0, SIG_FIGS=4, SIG_FIGS_EXP=2, /
&MISC SOLID_PHASE_ONLY=.TRUE., TMPA=27., /
&MESH ID='MESH', IJK=3,3,3, XB=0.,0.3,0.,0.3,0.,0.3, /
&REAC ID='PROPANE', FUEL='PROPANE', /
&MATL ID='BACKING', CONDUCTIVITY=0.10, DENSITY=65., EMISSIVITY=0.9, SPECIFIC_HEAT=1.14, /
&MATL ID='SAMPLE', CONDUCTIVITY=0.1171, DENSITY=1154.0, EMISSIVITY=0.9495, SPECIFIC_HEAT=1.5214, /
&RAMP ID='CONE-RAMP', T=0.0000, F=0.0, /
&RAMP ID='CONE-RAMP', T=7.5000, F=56.6, /
&RAMP ID='CONE-RAMP', T=15.0000, F=308.3, /
&RAMP ID='CONE-RAMP', T=22.5000, F=467.7, /
&RAMP ID='CONE-RAMP', T=30.0000, F=524.3, /
&RAMP ID='CONE-RAMP', T=37.5000, F=568.1, /
&RAMP ID='CONE-RAMP', T=45.0000, F=590.7, /
&RAMP ID='CONE-RAMP', T=52.5000, F=604.0, /
&RAMP ID='CONE-RAMP', T=60.0000, F=618.9, /
&RAMP ID='CONE-RAMP', T=67.5000, F=631.7, /
&RAMP ID='CONE-RAMP', T=75.0000, F=634.3, /
&RAMP ID='CONE-RAMP', T=82.5000, F=626.1, /
&RAMP ID='CONE-RAMP', T=90.0000, F=631.6, /
&RAMP ID='CONE-RAMP', T=97.5000, F=640.9, /
&RAMP ID='CONE-RAMP', T=105.0000, F=645.2, /
&RAMP ID='CONE-RAMP', T=112.5000, F=654.8, /
&RAMP ID='CONE-RAMP', T=120.0000, F=672.3, /
&RAMP ID='CONE-RAMP', T=127.5000, F=677.9, /
&RAMP ID='CONE-RAMP', T=135.0000, F=672.6, /
&RAMP ID='CONE-RAMP', T=142.5000, F=672.4, /
! ... 82 like lines cut
&SURF ID='SAMPLE-25-009', EXTERNAL_FLUX=1., HEAT_TRANSFER_COEFFICIENT=15.0000, HEAT_TRANSFER_COEFFICIENT_BACK=10., HRRPUA=1., IGNITION_TEMPERATURE=20.0, MATL_ID(1:2,1)='SAMPLE','BACKING', RAMP_EF='IGNITION_RAMP-25-009', RAMP_Q='CONE-RAMP', REFERENCE_HEAT_FLUX=91.1081, REFERENCE_HEAT_FLUX_TIME_INTERVAL=1., REFERENCE_CONE_THICKNESS=0.00920000, THICKNESS(1:2)=0.00920000,0.01270000, /
&RAMP ID='IGNITION_RAMP-25-009', T=0.0, F=56.9603, /
&RAMP ID='IGNITION_RAMP-25-009', T=1.0, F=56.9603, /
&OBST ID='SAMPLE-25-009', SURF_ID='SAMPLE-25-009', XB=0.0000,0.1000,0.0000,0.1000,0.0000,0.0000,DEVC_ID='TIGN-25-009', /
&DEVC ID='WALL TEMPERATURE-25-009', INITIAL_STATE=.FALSE., IOR=3, OUTPUT=.FALSE., QUANTITY='WALL TEMPERATURE', SETPOINT=20.0, XYZ=0.0500,0.0500,0.0000, /
&CTRL ID='IGNITION-CTRL-25-009', FUNCTION_TYPE='ANY', INPUT_ID='WALL TEMPERATURE-25-009', /
&DEVC ID='TIGN-25-009', XYZ=0,0,0, SETPOINT=90.0000, QUANTITY='TIME', INITIAL_STATE=.FALSE., /
&DEVC ID='IGNITION_DEVC-25-009', CTRL_ID='IGNITION-CTRL-25-009', IOR=3, OUTPUT=.FALSE., QUANTITY='CONTROL', XYZ=0.0500,0.0500,0.0000, /
&DEVC ID='HRRPUA-25-009', IOR=3, QUANTITY='HRRPUA', SPEC_ID='PROPANE', XYZ=0.0500,0.0500,0.0000, /
&DEVC ID='IGNITION-TIME-25-009', NO_UPDATE_DEVC_ID='IGNITION_DEVC-25-009', OUTPUT=.FALSE., QUANTITY='TIME', XYZ=0.0500,0.0500,0.0000, /
&SURF ID='SAMPLE-50-009', EXTERNAL_FLUX=1., HEAT_TRANSFER_COEFFICIENT=15.0000, HEAT_TRANSFER_COEFFICIENT_BACK=10., HRRPUA=1., IGNITION_TEMPERATURE=20.0, MATL_ID(1:2,1)='SAMPLE','BACKING', RAMP_EF='IGNITION_RAMP-50-009', RAMP_Q='CONE-RAMP', REFERENCE_HEAT_FLUX=91.1081, REFERENCE_HEAT_FLUX_TIME_INTERVAL=1., REFERENCE_CONE_THICKNESS=0.00920000, THICKNESS(1:2)=0.00920000,0.01270000, /
&RAMP ID='IGNITION_RAMP-50-009', T=0.0, F=91.1081, /
&RAMP ID='IGNITION_RAMP-50-009', T=1.0, F=91.1081, /
&OBST ID='SAMPLE-50-009', SURF_ID='SAMPLE-50-009', XB=0.1000,0.2000,0.0000,0.1000,0.0000,0.0000,DEVC_ID='TIGN-50-009', /
&DEVC ID='WALL TEMPERATURE-50-009', INITIAL_STATE=.FALSE., IOR=3, OUTPUT=.FALSE., QUANTITY='WALL TEMPERATURE', SETPOINT=20.0, XYZ=0.1500,0.0500,0.0000, /
&CTRL ID='IGNITION-CTRL-50-009', FUNCTION_TYPE='ANY', INPUT_ID='WALL TEMPERATURE-50-009', /
&DEVC ID='TIGN-50-009', XYZ=0,0,0, SETPOINT=22.5000, QUANTITY='TIME', INITIAL_STATE=.FALSE., /
&DEVC ID='IGNITION_DEVC-50-009', CTRL_ID='IGNITION-CTRL-50-009', IOR=3, OUTPUT=.FALSE., QUANTITY='CONTROL', XYZ=0.1500,0.0500,0.0000, /
&DEVC ID='HRRPUA-50-009', IOR=3, QUANTITY='HRRPUA', SPEC_ID='PROPANE', XYZ=0.1500,0.0500,0.0000, /
&DEVC ID='IGNITION-TIME-50-009', NO_UPDATE_DEVC_ID='IGNITION_DEVC-50-009', OUTPUT=.FALSE., QUANTITY='TIME', XYZ=0.1500,0.0500,0.0000, /
&SURF ID='SAMPLE-70-009', EXTERNAL_FLUX=1., HEAT_TRANSFER_COEFFICIENT=15.0000, HEAT_TRANSFER_COEFFICIENT_BACK=10., HRRPUA=1., IGNITION_TEMPERATURE=20.0, MATL_ID(1:2,1)='SAMPLE','BACKING', RAMP_EF='IGNITION_RAMP-70-009', RAMP_Q='CONE-RAMP', REFERENCE_HEAT_FLUX=91.1081, REFERENCE_HEAT_FLUX_TIME_INTERVAL=1., REFERENCE_CONE_THICKNESS=0.00920000, THICKNESS(1:2)=0.00920000,0.01270000, /
&RAMP ID='IGNITION_RAMP-70-009', T=0.0, F=116.6585, /
&RAMP ID='IGNITION_RAMP-70-009', T=1.0, F=116.6585, /
&OBST ID='SAMPLE-70-009', SURF_ID='SAMPLE-70-009', XB=0.2000,0.3000,0.0000,0.1000,0.0000,0.0000,DEVC_ID='TIGN-70-009', /
&DEVC ID='WALL TEMPERATURE-70-009', INITIAL_STATE=.FALSE., IOR=3, OUTPUT=.FALSE., QUANTITY='WALL TEMPERATURE', SETPOINT=20.0, XYZ=0.2500,0.0500,0.0000, /
&CTRL ID='IGNITION-CTRL-70-009', FUNCTION_TYPE='ANY', INPUT_ID='WALL TEMPERATURE-70-009', /
&DEVC ID='TIGN-70-009', XYZ=0,0,0, SETPOINT=7.5000, QUANTITY='TIME', INITIAL_STATE=.FALSE., /
&DEVC ID='IGNITION_DEVC-70-009', CTRL_ID='IGNITION-CTRL-70-009', IOR=3, OUTPUT=.FALSE., QUANTITY='CONTROL', XYZ=0.2500,0.0500,0.0000, /
&DEVC ID='HRRPUA-70-009', IOR=3, QUANTITY='HRRPUA', SPEC_ID='PROPANE', XYZ=0.2500,0.0500,0.0000, /
&DEVC ID='IGNITION-TIME-70-009', NO_UPDATE_DEVC_ID='IGNITION_DEVC-70-009', OUTPUT=.FALSE., QUANTITY='TIME', XYZ=0.2500,0.0500,0.0000, /
