&HEAD CHID='FSRI_PP', /
&TIME DT=1., T_END=20000.0 /
&DUMP DT_CTRL=1.0, DT_DEVC=1.0, DT_HRR=1.0, SIG_FIGS=4, SIG_FIGS_EXP=2, /
&MISC SOLID_PHASE_ONLY=.TRUE., TMPA=27., /
&MESH ID='MESH', IJK=3,3,3, XB=0.,0.3,0.,0.3,0.,0.3, /
&REAC ID='PROPANE', FUEL='PROPANE', /
&MATL ID='BACKING', CONDUCTIVITY=0.10, DENSITY=65., EMISSIVITY=0.9, SPECIFIC_HEAT=1.14, /
&MATL ID='SAMPLE', CONDUCTIVITY=0.1510, DENSITY=886.7, EMISSIVITY=1.0000, SPECIFIC_HEAT=1920.0000, /
&RAMP ID='CONE-RAMP', T=0.0000, F=40.0, /
&RAMP ID='CONE-RAMP', T=0.9712, F=51.0, /
&RAMP ID='CONE-RAMP', T=1.9424, F=63.3, /
&RAMP ID='CONE-RAMP', T=2.9137, F=76.3, /
&RAMP ID='CONE-RAMP', T=3.8849, F=89.9, /
&RAMP ID='CONE-RAMP', T=4.8561, F=104.5, /
&RAMP ID='CONE-RAMP', T=5.8273, F=119.7, /
&RAMP ID='CONE-RAMP', T=6.7986, F=135.6, /
&RAMP ID='CONE-RAMP', T=7.7698, F=152.0, /
&RAMP ID='CONE-RAMP', T=8.7410, F=168.8, /
&RAMP ID='CONE-RAMP', T=9.7122, F=185.9, /
&RAMP ID='CONE-RAMP', T=10.6835, F=203.4, /
&RAMP ID='CONE-RAMP', T=11.6547, F=221.3, /
&RAMP ID='CONE-RAMP', T=12.6259, F=240.2, /
&RAMP ID='CONE-RAMP', T=13.5971, F=259.3, /
&RAMP ID='CONE-RAMP', T=14.5683, F=278.6, /
&RAMP ID='CONE-RAMP', T=15.5396, F=297.7, /
&RAMP ID='CONE-RAMP', T=16.5108, F=316.5, /
&RAMP ID='CONE-RAMP', T=17.4820, F=335.4, /
&RAMP ID='CONE-RAMP', T=18.4532, F=354.2, /
! ... 255 like lines cut
&SURF ID='SAMPLE-25-003', EXTERNAL_FLUX=1., HEAT_TRANSFER_COEFFICIENT=15.0000, HEAT_TRANSFER_COEFFICIENT_BACK=10., HRRPUA=1., IGNITION_TEMPERATURE=20.0, MATL_ID(1:2,1)='SAMPLE','BACKING', RAMP_EF='IGNITION_RAMP-25-003', RAMP_Q='CONE-RAMP', REFERENCE_HEAT_FLUX=111.9620, REFERENCE_HEAT_FLUX_TIME_INTERVAL=1., REFERENCE_CONE_THICKNESS=0.00322556, THICKNESS(1:2)=0.00322556,0.01270000, /
&RAMP ID='IGNITION_RAMP-25-003', T=0.0, F=76.4546, /
&RAMP ID='IGNITION_RAMP-25-003', T=1.0, F=76.4546, /
&OBST ID='SAMPLE-25-003', SURF_ID='SAMPLE-25-003', XB=0.0000,0.1000,0.0000,0.1000,0.0000,0.0000,DEVC_ID='TIGN-25-003', /
&DEVC ID='WALL TEMPERATURE-25-003', INITIAL_STATE=.FALSE., IOR=3, OUTPUT=.FALSE., QUANTITY='WALL TEMPERATURE', SETPOINT=20.0, XYZ=0.0500,0.0500,0.0000, /
&CTRL ID='IGNITION-CTRL-25-003', FUNCTION_TYPE='ANY', INPUT_ID='WALL TEMPERATURE-25-003', /
&DEVC ID='TIGN-25-003', XYZ=0,0,0, SETPOINT=113.5000, QUANTITY='TIME', INITIAL_STATE=.FALSE., /
&DEVC ID='IGNITION_DEVC-25-003', CTRL_ID='IGNITION-CTRL-25-003', IOR=3, OUTPUT=.FALSE., QUANTITY='CONTROL', XYZ=0.0500,0.0500,0.0000, /
&DEVC ID='HRRPUA-25-003', IOR=3, QUANTITY='HRRPUA', SPEC_ID='PROPANE', XYZ=0.0500,0.0500,0.0000, /
&DEVC ID='IGNITION-TIME-25-003', NO_UPDATE_DEVC_ID='IGNITION_DEVC-25-003', OUTPUT=.FALSE., QUANTITY='TIME', XYZ=0.0500,0.0500,0.0000, /
&SURF ID='SAMPLE-50-003', EXTERNAL_FLUX=1., HEAT_TRANSFER_COEFFICIENT=15.0000, HEAT_TRANSFER_COEFFICIENT_BACK=10., HRRPUA=1., IGNITION_TEMPERATURE=20.0, MATL_ID(1:2,1)='SAMPLE','BACKING', RAMP_EF='IGNITION_RAMP-50-003', RAMP_Q='CONE-RAMP', REFERENCE_HEAT_FLUX=111.9620, REFERENCE_HEAT_FLUX_TIME_INTERVAL=1., REFERENCE_CONE_THICKNESS=0.00322556, THICKNESS(1:2)=0.00322556,0.01270000, /
&RAMP ID='IGNITION_RAMP-50-003', T=0.0, F=111.9620, /
&RAMP ID='IGNITION_RAMP-50-003', T=1.0, F=111.9620, /
&OBST ID='SAMPLE-50-003', SURF_ID='SAMPLE-50-003', XB=0.1000,0.2000,0.0000,0.1000,0.0000,0.0000,DEVC_ID='TIGN-50-003', /
&DEVC ID='WALL TEMPERATURE-50-003', INITIAL_STATE=.FALSE., IOR=3, OUTPUT=.FALSE., QUANTITY='WALL TEMPERATURE', SETPOINT=20.0, XYZ=0.1500,0.0500,0.0000, /
&CTRL ID='IGNITION-CTRL-50-003', FUNCTION_TYPE='ANY', INPUT_ID='WALL TEMPERATURE-50-003', /
&DEVC ID='TIGN-50-003', XYZ=0,0,0, SETPOINT=36.6349, QUANTITY='TIME', INITIAL_STATE=.FALSE., /
&DEVC ID='IGNITION_DEVC-50-003', CTRL_ID='IGNITION-CTRL-50-003', IOR=3, OUTPUT=.FALSE., QUANTITY='CONTROL', XYZ=0.1500,0.0500,0.0000, /
&DEVC ID='HRRPUA-50-003', IOR=3, QUANTITY='HRRPUA', SPEC_ID='PROPANE', XYZ=0.1500,0.0500,0.0000, /
&DEVC ID='IGNITION-TIME-50-003', NO_UPDATE_DEVC_ID='IGNITION_DEVC-50-003', OUTPUT=.FALSE., QUANTITY='TIME', XYZ=0.1500,0.0500,0.0000, /
&SURF ID='SAMPLE-75-003', EXTERNAL_FLUX=1., HEAT_TRANSFER_COEFFICIENT=15.0000, HEAT_TRANSFER_COEFFICIENT_BACK=10., HRRPUA=1., IGNITION_TEMPERATURE=20.0, MATL_ID(1:2,1)='SAMPLE','BACKING', RAMP_EF='IGNITION_RAMP-75-003', RAMP_Q='CONE-RAMP', REFERENCE_HEAT_FLUX=111.9620, REFERENCE_HEAT_FLUX_TIME_INTERVAL=1., REFERENCE_CONE_THICKNESS=0.00322556, THICKNESS(1:2)=0.00322556,0.01270000, /
&RAMP ID='IGNITION_RAMP-75-003', T=0.0, F=145.0702, /
&RAMP ID='IGNITION_RAMP-75-003', T=1.0, F=145.0702, /
&OBST ID='SAMPLE-75-003', SURF_ID='SAMPLE-75-003', XB=0.2000,0.3000,0.0000,0.1000,0.0000,0.0000,DEVC_ID='TIGN-75-003', /
&DEVC ID='WALL TEMPERATURE-75-003', INITIAL_STATE=.FALSE., IOR=3, OUTPUT=.FALSE., QUANTITY='WALL TEMPERATURE', SETPOINT=20.0, XYZ=0.2500,0.0500,0.0000, /
&CTRL ID='IGNITION-CTRL-75-003', FUNCTION_TYPE='ANY', INPUT_ID='WALL TEMPERATURE-75-003', /
&DEVC ID='TIGN-75-003', XYZ=0,0,0, SETPOINT=18.2907, QUANTITY='TIME', INITIAL_STATE=.FALSE., /
&DEVC ID='IGNITION_DEVC-75-003', CTRL_ID='IGNITION-CTRL-75-003', IOR=3, OUTPUT=.FALSE., QUANTITY='CONTROL', XYZ=0.2500,0.0500,0.0000, /
&DEVC ID='HRRPUA-75-003', IOR=3, QUANTITY='HRRPUA', SPEC_ID='PROPANE', XYZ=0.2500,0.0500,0.0000, /
&DEVC ID='IGNITION-TIME-75-003', NO_UPDATE_DEVC_ID='IGNITION_DEVC-75-003', OUTPUT=.FALSE., QUANTITY='TIME', XYZ=0.2500,0.0500,0.0000, /
