&HEAD CHID='FSRI_Wool_Rug', /
&TIME DT=1., T_END=20000.0 /
&DUMP DT_CTRL=1.0, DT_DEVC=1.0, DT_HRR=1.0, SIG_FIGS=4, SIG_FIGS_EXP=2, /
&MISC SOLID_PHASE_ONLY=.TRUE., TMPA=27., /
&MESH ID='MESH', IJK=3,3,3, XB=0.,0.3,0.,0.3,0.,0.3, /
&REAC ID='PROPANE', FUEL='PROPANE', /
&MATL ID='BACKING', CONDUCTIVITY=0.10, DENSITY=65., EMISSIVITY=0.9, SPECIFIC_HEAT=1.14, /
&MATL ID='SAMPLE', CONDUCTIVITY=0.0580, DENSITY=226.0, EMISSIVITY=1.0000, SPECIFIC_HEAT=1330.0000, /
&RAMP ID='CONE-RAMP', T=0.0000, F=20.0, /
&RAMP ID='CONE-RAMP', T=0.9703, F=36.1, /
&RAMP ID='CONE-RAMP', T=1.9406, F=56.9, /
&RAMP ID='CONE-RAMP', T=2.9108, F=81.6, /
&RAMP ID='CONE-RAMP', T=3.8811, F=109.0, /
&RAMP ID='CONE-RAMP', T=4.8514, F=138.2, /
&RAMP ID='CONE-RAMP', T=5.8217, F=168.7, /
&RAMP ID='CONE-RAMP', T=6.7920, F=200.2, /
&RAMP ID='CONE-RAMP', T=7.7622, F=230.5, /
&RAMP ID='CONE-RAMP', T=8.7325, F=258.6, /
&RAMP ID='CONE-RAMP', T=9.7028, F=282.1, /
&RAMP ID='CONE-RAMP', T=10.6731, F=300.1, /
&RAMP ID='CONE-RAMP', T=11.6434, F=312.1, /
&RAMP ID='CONE-RAMP', T=12.6136, F=319.1, /
&RAMP ID='CONE-RAMP', T=13.5839, F=322.1, /
&RAMP ID='CONE-RAMP', T=14.5542, F=322.4, /
&RAMP ID='CONE-RAMP', T=15.5245, F=320.2, /
&RAMP ID='CONE-RAMP', T=16.4948, F=316.1, /
&RAMP ID='CONE-RAMP', T=17.4650, F=311.1, /
&RAMP ID='CONE-RAMP', T=18.4353, F=305.4, /
! ... 552 like lines cut
&SURF ID='SAMPLE-25-016', EXTERNAL_FLUX=1., HEAT_TRANSFER_COEFFICIENT=0.0000, HEAT_TRANSFER_COEFFICIENT_BACK=10., HRRPUA=1., IGNITION_TEMPERATURE=20.0, MATL_ID(1:2,1)='SAMPLE','BACKING', RAMP_EF='IGNITION_RAMP-25-016', RAMP_Q='CONE-RAMP', REFERENCE_HEAT_FLUX=75.0000, REFERENCE_HEAT_FLUX_TIME_INTERVAL=1., REFERENCE_CONE_THICKNESS=0.01663274, THICKNESS(1:2)=0.01663274,0.01270000, /
&RAMP ID='IGNITION_RAMP-25-016', T=0.0, F=50.0000, /
&RAMP ID='IGNITION_RAMP-25-016', T=1.0, F=50.0000, /
&OBST ID='SAMPLE-25-016', SURF_ID='SAMPLE-25-016', XB=0.0000,0.1000,0.0000,0.1000,0.0000,0.0000,DEVC_ID='TIGN-25-016', /
&DEVC ID='WALL TEMPERATURE-25-016', INITIAL_STATE=.FALSE., IOR=3, OUTPUT=.FALSE., QUANTITY='WALL TEMPERATURE', SETPOINT=20.0, XYZ=0.0500,0.0500,0.0000, /
&CTRL ID='IGNITION-CTRL-25-016', FUNCTION_TYPE='ANY', INPUT_ID='WALL TEMPERATURE-25-016', /
&DEVC ID='TIGN-25-016', XYZ=0,0,0, SETPOINT=30.8447, QUANTITY='TIME', INITIAL_STATE=.FALSE., /
&DEVC ID='IGNITION_DEVC-25-016', CTRL_ID='IGNITION-CTRL-25-016', IOR=3, OUTPUT=.FALSE., QUANTITY='CONTROL', XYZ=0.0500,0.0500,0.0000, /
&DEVC ID='HRRPUA-25-016', IOR=3, QUANTITY='HRRPUA', SPEC_ID='PROPANE', XYZ=0.0500,0.0500,0.0000, /
&DEVC ID='IGNITION-TIME-25-016', NO_UPDATE_DEVC_ID='IGNITION_DEVC-25-016', OUTPUT=.FALSE., QUANTITY='TIME', XYZ=0.0500,0.0500,0.0000, /
&SURF ID='SAMPLE-50-016', EXTERNAL_FLUX=1., HEAT_TRANSFER_COEFFICIENT=0.0000, HEAT_TRANSFER_COEFFICIENT_BACK=10., HRRPUA=1., IGNITION_TEMPERATURE=20.0, MATL_ID(1:2,1)='SAMPLE','BACKING', RAMP_EF='IGNITION_RAMP-50-016', RAMP_Q='CONE-RAMP', REFERENCE_HEAT_FLUX=75.0000, REFERENCE_HEAT_FLUX_TIME_INTERVAL=1., REFERENCE_CONE_THICKNESS=0.01663274, THICKNESS(1:2)=0.01663274,0.01270000, /
&RAMP ID='IGNITION_RAMP-50-016', T=0.0, F=75.0000, /
&RAMP ID='IGNITION_RAMP-50-016', T=1.0, F=75.0000, /
&OBST ID='SAMPLE-50-016', SURF_ID='SAMPLE-50-016', XB=0.1000,0.2000,0.0000,0.1000,0.0000,0.0000,DEVC_ID='TIGN-50-016', /
&DEVC ID='WALL TEMPERATURE-50-016', INITIAL_STATE=.FALSE., IOR=3, OUTPUT=.FALSE., QUANTITY='WALL TEMPERATURE', SETPOINT=20.0, XYZ=0.1500,0.0500,0.0000, /
&CTRL ID='IGNITION-CTRL-50-016', FUNCTION_TYPE='ANY', INPUT_ID='WALL TEMPERATURE-50-016', /
&DEVC ID='TIGN-50-016', XYZ=0,0,0, SETPOINT=2.4703, QUANTITY='TIME', INITIAL_STATE=.FALSE., /
&DEVC ID='IGNITION_DEVC-50-016', CTRL_ID='IGNITION-CTRL-50-016', IOR=3, OUTPUT=.FALSE., QUANTITY='CONTROL', XYZ=0.1500,0.0500,0.0000, /
&DEVC ID='HRRPUA-50-016', IOR=3, QUANTITY='HRRPUA', SPEC_ID='PROPANE', XYZ=0.1500,0.0500,0.0000, /
&DEVC ID='IGNITION-TIME-50-016', NO_UPDATE_DEVC_ID='IGNITION_DEVC-50-016', OUTPUT=.FALSE., QUANTITY='TIME', XYZ=0.1500,0.0500,0.0000, /
&SURF ID='SAMPLE-75-016', EXTERNAL_FLUX=1., HEAT_TRANSFER_COEFFICIENT=0.0000, HEAT_TRANSFER_COEFFICIENT_BACK=10., HRRPUA=1., IGNITION_TEMPERATURE=20.0, MATL_ID(1:2,1)='SAMPLE','BACKING', RAMP_EF='IGNITION_RAMP-75-016', RAMP_Q='CONE-RAMP', REFERENCE_HEAT_FLUX=75.0000, REFERENCE_HEAT_FLUX_TIME_INTERVAL=1., REFERENCE_CONE_THICKNESS=0.01663274, THICKNESS(1:2)=0.01663274,0.01270000, /
&RAMP ID='IGNITION_RAMP-75-016', T=0.0, F=100.0000, /
&RAMP ID='IGNITION_RAMP-75-016', T=1.0, F=100.0000, /
&OBST ID='SAMPLE-75-016', SURF_ID='SAMPLE-75-016', XB=0.2000,0.3000,0.0000,0.1000,0.0000,0.0000,DEVC_ID='TIGN-75-016', /
&DEVC ID='WALL TEMPERATURE-75-016', INITIAL_STATE=.FALSE., IOR=3, OUTPUT=.FALSE., QUANTITY='WALL TEMPERATURE', SETPOINT=20.0, XYZ=0.2500,0.0500,0.0000, /
&CTRL ID='IGNITION-CTRL-75-016', FUNCTION_TYPE='ANY', INPUT_ID='WALL TEMPERATURE-75-016', /
&DEVC ID='TIGN-75-016', XYZ=0,0,0, SETPOINT=0.2500, QUANTITY='TIME', INITIAL_STATE=.FALSE., /
&DEVC ID='IGNITION_DEVC-75-016', CTRL_ID='IGNITION-CTRL-75-016', IOR=3, OUTPUT=.FALSE., QUANTITY='CONTROL', XYZ=0.2500,0.0500,0.0000, /
&DEVC ID='HRRPUA-75-016', IOR=3, QUANTITY='HRRPUA', SPEC_ID='PROPANE', XYZ=0.2500,0.0500,0.0000, /
&DEVC ID='IGNITION-TIME-75-016', NO_UPDATE_DEVC_ID='IGNITION_DEVC-75-016', OUTPUT=.FALSE., QUANTITY='TIME', XYZ=0.2500,0.0500,0.0000, /
