&HEAD CHID='FSRI_Engineered_Flooring', /
&TIME DT=1., T_END=20000.0 /
&DUMP DT_CTRL=1.0, DT_DEVC=1.0, DT_HRR=1.0, SIG_FIGS=4, SIG_FIGS_EXP=2, /
&MISC SOLID_PHASE_ONLY=.TRUE., TMPA=27., /
&MESH ID='MESH', IJK=3,3,3, XB=0.,0.3,0.,0.3,0.,0.3, /
&REAC ID='PROPANE', FUEL='PROPANE', /
&MATL ID='BACKING', CONDUCTIVITY=0.10, DENSITY=65., EMISSIVITY=0.9, SPECIFIC_HEAT=1.14, /
&MATL ID='SAMPLE', CONDUCTIVITY=0.1340, DENSITY=815.0, EMISSIVITY=1.0000, SPECIFIC_HEAT=1604.0000, /
&RAMP ID='CONE-RAMP', T=0.0000, F=45.7, /
&RAMP ID='CONE-RAMP', T=1.0772, F=67.5, /
&RAMP ID='CONE-RAMP', T=2.1544, F=92.4, /
&RAMP ID='CONE-RAMP', T=3.2315, F=119.6, /
&RAMP ID='CONE-RAMP', T=4.3087, F=148.1, /
&RAMP ID='CONE-RAMP', T=5.3859, F=177.3, /
&RAMP ID='CONE-RAMP', T=6.4631, F=204.2, /
&RAMP ID='CONE-RAMP', T=7.5403, F=227.2, /
&RAMP ID='CONE-RAMP', T=8.6174, F=245.6, /
&RAMP ID='CONE-RAMP', T=9.6946, F=259.4, /
&RAMP ID='CONE-RAMP', T=10.7718, F=268.7, /
&RAMP ID='CONE-RAMP', T=11.8490, F=274.4, /
&RAMP ID='CONE-RAMP', T=12.9262, F=277.4, /
&RAMP ID='CONE-RAMP', T=14.0034, F=278.5, /
&RAMP ID='CONE-RAMP', T=15.0805, F=278.6, /
&RAMP ID='CONE-RAMP', T=16.1577, F=278.5, /
&RAMP ID='CONE-RAMP', T=17.2349, F=278.6, /
&RAMP ID='CONE-RAMP', T=18.3121, F=279.0, /
&RAMP ID='CONE-RAMP', T=19.3893, F=279.7, /
&RAMP ID='CONE-RAMP', T=20.4664, F=281.3, /
! ... 1469 like lines cut
&SURF ID='SAMPLE-25-009', EXTERNAL_FLUX=1., HEAT_TRANSFER_COEFFICIENT=15.0000, HEAT_TRANSFER_COEFFICIENT_BACK=10., HRRPUA=1., IGNITION_TEMPERATURE=20.0, MATL_ID(1:2,1)='SAMPLE','BACKING', RAMP_EF='IGNITION_RAMP-25-009', RAMP_Q='CONE-RAMP', REFERENCE_HEAT_FLUX=75.0000, REFERENCE_HEAT_FLUX_TIME_INTERVAL=1., REFERENCE_CONE_THICKNESS=0.00901595, THICKNESS(1:2)=0.00901595,0.01270000, /
&RAMP ID='IGNITION_RAMP-25-009', T=0.0, F=50.0000, /
&RAMP ID='IGNITION_RAMP-25-009', T=1.0, F=50.0000, /
&OBST ID='SAMPLE-25-009', SURF_ID='SAMPLE-25-009', XB=0.0000,0.1000,0.0000,0.1000,0.0000,0.0000,DEVC_ID='TIGN-25-009', /
&DEVC ID='WALL TEMPERATURE-25-009', INITIAL_STATE=.FALSE., IOR=3, OUTPUT=.FALSE., QUANTITY='WALL TEMPERATURE', SETPOINT=20.0, XYZ=0.0500,0.0500,0.0000, /
&CTRL ID='IGNITION-CTRL-25-009', FUNCTION_TYPE='ANY', INPUT_ID='WALL TEMPERATURE-25-009', /
&DEVC ID='TIGN-25-009', XYZ=0,0,0, SETPOINT=140.5815, QUANTITY='TIME', INITIAL_STATE=.FALSE., /
&DEVC ID='IGNITION_DEVC-25-009', CTRL_ID='IGNITION-CTRL-25-009', IOR=3, OUTPUT=.FALSE., QUANTITY='CONTROL', XYZ=0.0500,0.0500,0.0000, /
&DEVC ID='HRRPUA-25-009', IOR=3, QUANTITY='HRRPUA', SPEC_ID='PROPANE', XYZ=0.0500,0.0500,0.0000, /
&DEVC ID='IGNITION-TIME-25-009', NO_UPDATE_DEVC_ID='IGNITION_DEVC-25-009', OUTPUT=.FALSE., QUANTITY='TIME', XYZ=0.0500,0.0500,0.0000, /
&SURF ID='SAMPLE-50-009', EXTERNAL_FLUX=1., HEAT_TRANSFER_COEFFICIENT=15.0000, HEAT_TRANSFER_COEFFICIENT_BACK=10., HRRPUA=1., IGNITION_TEMPERATURE=20.0, MATL_ID(1:2,1)='SAMPLE','BACKING', RAMP_EF='IGNITION_RAMP-50-009', RAMP_Q='CONE-RAMP', REFERENCE_HEAT_FLUX=75.0000, REFERENCE_HEAT_FLUX_TIME_INTERVAL=1., REFERENCE_CONE_THICKNESS=0.00901595, THICKNESS(1:2)=0.00901595,0.01270000, /
&RAMP ID='IGNITION_RAMP-50-009', T=0.0, F=75.0000, /
&RAMP ID='IGNITION_RAMP-50-009', T=1.0, F=75.0000, /
&OBST ID='SAMPLE-50-009', SURF_ID='SAMPLE-50-009', XB=0.1000,0.2000,0.0000,0.1000,0.0000,0.0000,DEVC_ID='TIGN-50-009', /
&DEVC ID='WALL TEMPERATURE-50-009', INITIAL_STATE=.FALSE., IOR=3, OUTPUT=.FALSE., QUANTITY='WALL TEMPERATURE', SETPOINT=20.0, XYZ=0.1500,0.0500,0.0000, /
&CTRL ID='IGNITION-CTRL-50-009', FUNCTION_TYPE='ANY', INPUT_ID='WALL TEMPERATURE-50-009', /
&DEVC ID='TIGN-50-009', XYZ=0,0,0, SETPOINT=26.1544, QUANTITY='TIME', INITIAL_STATE=.FALSE., /
&DEVC ID='IGNITION_DEVC-50-009', CTRL_ID='IGNITION-CTRL-50-009', IOR=3, OUTPUT=.FALSE., QUANTITY='CONTROL', XYZ=0.1500,0.0500,0.0000, /
&DEVC ID='HRRPUA-50-009', IOR=3, QUANTITY='HRRPUA', SPEC_ID='PROPANE', XYZ=0.1500,0.0500,0.0000, /
&DEVC ID='IGNITION-TIME-50-009', NO_UPDATE_DEVC_ID='IGNITION_DEVC-50-009', OUTPUT=.FALSE., QUANTITY='TIME', XYZ=0.1500,0.0500,0.0000, /
&SURF ID='SAMPLE-75-009', EXTERNAL_FLUX=1., HEAT_TRANSFER_COEFFICIENT=15.0000, HEAT_TRANSFER_COEFFICIENT_BACK=10., HRRPUA=1., IGNITION_TEMPERATURE=20.0, MATL_ID(1:2,1)='SAMPLE','BACKING', RAMP_EF='IGNITION_RAMP-75-009', RAMP_Q='CONE-RAMP', REFERENCE_HEAT_FLUX=75.0000, REFERENCE_HEAT_FLUX_TIME_INTERVAL=1., REFERENCE_CONE_THICKNESS=0.00901595, THICKNESS(1:2)=0.00901595,0.01270000, /
&RAMP ID='IGNITION_RAMP-75-009', T=0.0, F=100.0000, /
&RAMP ID='IGNITION_RAMP-75-009', T=1.0, F=100.0000, /
&OBST ID='SAMPLE-75-009', SURF_ID='SAMPLE-75-009', XB=0.2000,0.3000,0.0000,0.1000,0.0000,0.0000,DEVC_ID='TIGN-75-009', /
&DEVC ID='WALL TEMPERATURE-75-009', INITIAL_STATE=.FALSE., IOR=3, OUTPUT=.FALSE., QUANTITY='WALL TEMPERATURE', SETPOINT=20.0, XYZ=0.2500,0.0500,0.0000, /
&CTRL ID='IGNITION-CTRL-75-009', FUNCTION_TYPE='ANY', INPUT_ID='WALL TEMPERATURE-75-009', /
&DEVC ID='TIGN-75-009', XYZ=0,0,0, SETPOINT=12.4391, QUANTITY='TIME', INITIAL_STATE=.FALSE., /
&DEVC ID='IGNITION_DEVC-75-009', CTRL_ID='IGNITION-CTRL-75-009', IOR=3, OUTPUT=.FALSE., QUANTITY='CONTROL', XYZ=0.2500,0.0500,0.0000, /
&DEVC ID='HRRPUA-75-009', IOR=3, QUANTITY='HRRPUA', SPEC_ID='PROPANE', XYZ=0.2500,0.0500,0.0000, /
&DEVC ID='IGNITION-TIME-75-009', NO_UPDATE_DEVC_ID='IGNITION_DEVC-75-009', OUTPUT=.FALSE., QUANTITY='TIME', XYZ=0.2500,0.0500,0.0000, /
